file 175661 1769225177                                          
version 3
run DebugOTNPath-0-20260124-11:26:00-10992
attr configname DebugOTNPath
attr datetime 20260124-11:26:00
attr datetimef 20260124-112600
attr experiment DebugOTNPath
attr inifile omnetpp.ini
attr iterationvars ""
attr iterationvarsd ""
attr iterationvarsf ""
attr measurement ""
attr network SmartSubstationTopology
attr processid 10992
attr repetition 0
attr replication #0
attr resultdir results
attr runnumber 0
attr seedset 0
config image-path ../inet4.5/images
config network SmartSubstationTopology
config sim-time-limit 3s
config **.verbose true
config **.cmdenv-log-level INFO
config *.stationA_TSN.**.verbose true
config *.stationB_TSN.**.verbose true
config *.borderGateway1.**.verbose true
config *.borderGateway2.**.verbose true
config *.otnDevice.**.verbose true
config *.configurator.typename IPv4NetworkConfigurator
config *.stationA_Protection.numApps 1
config *.stationA_Protection.app[0].typename UdpBasicApp
config *.stationA_Protection.app[0].destAddress "\"stationB_Protection\""
config *.stationA_Protection.app[0].destPort 7001
config *.stationA_Protection.app[0].messageLength 100B
config *.stationA_Protection.app[0].sendInterval 300ms
config *.stationA_Protection.app[0].startTime 0.3s
config *.stationA_Protection.app[0].packetName "\"OTN_Path_Test\""
config *.stationB_Protection.numApps 1
config *.stationB_Protection.app[0].typename UdpSink
config *.stationB_Protection.app[0].localPort 7001
config *.stationA_MU.numApps 0
config *.stationA_IT.numApps 0
config *.stationB_MU.numApps 0
config *.stationB_IT.numApps 0
config *.stationA_Camera*.numApps 0
config *.stationB_Camera*.numApps 0
config *.stationA_VoIP*.numApps 0
config *.stationB_VoIP*.numApps 0
config network SmartSubstationTopology
config sim-time-limit 50s
config cmdenv-express-mode false
config record-eventlog true
config **.udp.verbose true
config **.ipv4.verbose true
config **.arp.verbose true
config *.configurator.typename IPv4NetworkConfigurator
config **.hasIpv4 true
config **.hasUdp true
config **.hasTcp false
config *.stationA_MU.numApps 1
config *.stationA_MU.app[0].typename UdpBasicApp
config *.stationA_MU.app[0].localPort 1000
config *.stationA_MU.app[0].destAddress "\"stationA_Protection\""
config *.stationA_MU.app[0].destPort 2000
config *.stationA_MU.app[0].messageLength 140B
config *.stationA_MU.app[0].sendInterval 250us
config *.stationA_MU.app[0].startTime 0.2s
config *.stationA_MU.app[0].packetName "\"SV_Packet\""
config *.stationA_MU.app[0].dscp 56
config *.stationA_MU.app[0].verbose true
config *.stationA_Protection.numApps 3
config *.stationA_Protection.app[0].typename UdpSink
config *.stationA_Protection.app[0].localPort 2000
config *.stationA_Protection.app[0].verbose true
config *.stationA_Protection.app[1].typename UdpBasicApp
config *.stationA_Protection.app[1].localPort 2001
config *.stationA_Protection.app[1].destAddress "\"stationA_IT\""
config *.stationA_Protection.app[1].destPort 3000
config *.stationA_Protection.app[1].messageLength 120B
config *.stationA_Protection.app[1].sendInterval exponential(2s)
config *.stationA_Protection.app[1].startTime 0.8s
config *.stationA_Protection.app[1].packetName "\"GOOSE_Packet\""
config *.stationA_Protection.app[1].dscp 48
config *.stationA_Protection.app[1].verbose true
config *.stationA_IT.numApps 1
config *.stationA_IT.app[0].typename UdpSink
config *.stationA_IT.app[0].localPort 3000
config *.stationA_IT.app[0].verbose true
config *.stationA_Protection.app[2].typename UdpBasicApp
config *.stationA_Protection.app[2].localPort 2002
config *.stationA_Protection.app[2].destAddress "\"stationB_Protection\""
config *.stationA_Protection.app[2].destPort 4000
config *.stationA_Protection.app[2].messageLength 100B
config *.stationA_Protection.app[2].sendInterval 1.5s
config *.stationA_Protection.app[2].startTime 1.2s
config *.stationA_Protection.app[2].packetName "\"CrossStation_Packet\""
config *.stationA_Protection.app[2].verbose true
config *.stationB_Protection.numApps 1
config *.stationB_Protection.app[0].typename UdpSink
config *.stationB_Protection.app[0].localPort 4000
config *.stationB_Protection.app[0].verbose true
config *.stationA_BusProtection.numApps 1
config *.stationA_BusProtection.app[0].typename UdpSink
config *.stationA_BusProtection.app[0].localPort 5000
config *.stationA_BusProtection.app[0].verbose true
config *.stationA_BusProtection_MU1.numApps 1
config *.stationA_BusProtection_MU1.app[0].typename UdpBasicApp
config *.stationA_BusProtection_MU1.app[0].localPort 5101
config *.stationA_BusProtection_MU1.app[0].destAddress "\"stationA_BusProtection\""
config *.stationA_BusProtection_MU1.app[0].destPort 5000
config *.stationA_BusProtection_MU1.app[0].messageLength 140B
config *.stationA_BusProtection_MU1.app[0].sendInterval 250us
config *.stationA_BusProtection_MU1.app[0].startTime 0.3s
config *.stationA_BusProtection_MU1.app[0].packetName "\"Bus_SV_1\""
config *.stationA_BusProtection_MU1.app[0].dscp 56
config *.stationA_BusProtection_MU1.app[0].verbose true
config *.stationA_BusProtection_MU2.numApps 1
config *.stationA_BusProtection_MU2.app[0].typename UdpBasicApp
config *.stationA_BusProtection_MU2.app[0].localPort 5102
config *.stationA_BusProtection_MU2.app[0].destAddress "\"stationA_BusProtection\""
config *.stationA_BusProtection_MU2.app[0].destPort 5000
config *.stationA_BusProtection_MU2.app[0].messageLength 140B
config *.stationA_BusProtection_MU2.app[0].sendInterval 250us
config *.stationA_BusProtection_MU2.app[0].startTime 0.4s
config *.stationA_BusProtection_MU2.app[0].packetName "\"Bus_SV_2\""
config *.stationA_BusProtection_MU2.app[0].dscp 56
config *.stationA_BusProtection_MU2.app[0].verbose true
config *.stationA_BusProtection_MU3.numApps 1
config *.stationA_BusProtection_MU3.app[0].typename UdpBasicApp
config *.stationA_BusProtection_MU3.app[0].localPort 5103
config *.stationA_BusProtection_MU3.app[0].destAddress "\"stationA_BusProtection\""
config *.stationA_BusProtection_MU3.app[0].destPort 5000
config *.stationA_BusProtection_MU3.app[0].messageLength 140B
config *.stationA_BusProtection_MU3.app[0].sendInterval 250us
config *.stationA_BusProtection_MU3.app[0].startTime 0.5s
config *.stationA_BusProtection_MU3.app[0].packetName "\"Bus_SV_3\""
config *.stationA_BusProtection_MU3.app[0].dscp 56
config *.stationA_BusProtection_MU3.app[0].verbose true
config *.stationB_BusProtection.numApps 1
config *.stationB_BusProtection.app[0].typename UdpSink
config *.stationB_BusProtection.app[0].localPort 5000
config *.stationB_BusProtection.app[0].verbose true
config *.stationB_BusProtection_MU1.numApps 1
config *.stationB_BusProtection_MU1.app[0].typename UdpBasicApp
config *.stationB_BusProtection_MU1.app[0].localPort 5101
config *.stationB_BusProtection_MU1.app[0].destAddress "\"stationB_BusProtection\""
config *.stationB_BusProtection_MU1.app[0].destPort 5000
config *.stationB_BusProtection_MU1.app[0].messageLength 140B
config *.stationB_BusProtection_MU1.app[0].sendInterval 250us
config *.stationB_BusProtection_MU1.app[0].startTime 0.3s
config *.stationB_BusProtection_MU1.app[0].packetName "\"Bus_SV_1\""
config *.stationB_BusProtection_MU1.app[0].dscp 56
config *.stationB_BusProtection_MU1.app[0].verbose true
config *.stationB_BusProtection_MU2.numApps 1
config *.stationB_BusProtection_MU2.app[0].typename UdpBasicApp
config *.stationB_BusProtection_MU2.app[0].localPort 5102
config *.stationB_BusProtection_MU2.app[0].destAddress "\"stationB_BusProtection\""
config *.stationB_BusProtection_MU2.app[0].destPort 5000
config *.stationB_BusProtection_MU2.app[0].messageLength 140B
config *.stationB_BusProtection_MU2.app[0].sendInterval 250us
config *.stationB_BusProtection_MU2.app[0].startTime 0.4s
config *.stationB_BusProtection_MU2.app[0].packetName "\"Bus_SV_2\""
config *.stationB_BusProtection_MU2.app[0].dscp 56
config *.stationB_BusProtection_MU2.app[0].verbose true
config *.stationB_BusProtection_MU3.numApps 1
config *.stationB_BusProtection_MU3.app[0].typename UdpBasicApp
config *.stationB_BusProtection_MU3.app[0].localPort 5103
config *.stationB_BusProtection_MU3.app[0].destAddress "\"stationB_BusProtection\""
config *.stationB_BusProtection_MU3.app[0].destPort 5000
config *.stationB_BusProtection_MU3.app[0].messageLength 140B
config *.stationB_BusProtection_MU3.app[0].sendInterval 250us
config *.stationB_BusProtection_MU3.app[0].startTime 0.5s
config *.stationB_BusProtection_MU3.app[0].packetName "\"Bus_SV_3\""
config *.stationB_BusProtection_MU3.app[0].dscp 56
config *.stationB_BusProtection_MU3.app[0].verbose true
config *.stationA_Camera*.numApps 1
config *.stationA_Camera*.app[0].typename UdpBasicApp
config *.stationA_Camera*.app[0].destAddress "\"stationA_OMServer\""
config *.stationA_Camera*.app[0].destPort 6000
config *.stationA_Camera*.app[0].messageLength 10MB
config *.stationA_Camera*.app[0].sendInterval 33.33ms
config *.stationA_Camera*.app[0].startTime "uniform(0.5s, 1s)"
config *.stationA_Camera*.app[0].packetName "\"Video_Stream\""
config *.stationA_Camera*.app[0].dscp 0
config *.stationA_Camera*.app[0].verbose true
config *.stationB_Camera*.numApps 1
config *.stationB_Camera*.app[0].typename UdpBasicApp
config *.stationB_Camera*.app[0].destAddress "\"stationB_OMServer\""
config *.stationB_Camera*.app[0].destPort 6000
config *.stationB_Camera*.app[0].messageLength 10MB
config *.stationB_Camera*.app[0].sendInterval 33.33ms
config *.stationB_Camera*.app[0].startTime "uniform(0.5s, 1s)"
config *.stationB_Camera*.app[0].packetName "\"Video_Stream\""
config *.stationB_Camera*.app[0].dscp 0
config *.stationB_Camera*.app[0].verbose true
config *.stationA_OMServer.numApps 1
config *.stationA_OMServer.app[0].typename UdpSink
config *.stationA_OMServer.app[0].localPort 6000
config *.stationA_OMServer.app[0].verbose true
config *.stationB_OMServer.numApps 1
config *.stationB_OMServer.app[0].typename UdpSink
config *.stationB_OMServer.app[0].localPort 6000
config *.stationB_OMServer.app[0].verbose true
config *.stationA_VoIP1.numApps 1
config *.stationA_VoIP1.app[0].typename UdpBasicApp
config *.stationA_VoIP1.app[0].localPort 7001
config *.stationA_VoIP1.app[0].destAddress "\"stationB_VoIP1\""
config *.stationA_VoIP1.app[0].destPort 8001
config *.stationA_VoIP1.app[0].messageLength 200B
config *.stationA_VoIP1.app[0].sendInterval 20ms
config *.stationA_VoIP1.app[0].startTime 0.6s
config *.stationA_VoIP1.app[0].packetName "\"VoIP_Stream\""
config *.stationA_VoIP1.app[0].dscp 40
config *.stationA_VoIP1.app[0].verbose true
config *.stationA_VoIP2.numApps 1
config *.stationA_VoIP2.app[0].typename UdpBasicApp
config *.stationA_VoIP2.app[0].localPort 7002
config *.stationA_VoIP2.app[0].destAddress "\"stationB_VoIP2\""
config *.stationA_VoIP2.app[0].destPort 8002
config *.stationA_VoIP2.app[0].messageLength 200B
config *.stationA_VoIP2.app[0].sendInterval 20ms
config *.stationA_VoIP2.app[0].startTime 0.7s
config *.stationA_VoIP2.app[0].packetName "\"VoIP_Stream\""
config *.stationA_VoIP2.app[0].dscp 40
config *.stationA_VoIP2.app[0].verbose true
config *.stationB_VoIP1.numApps 1
config *.stationB_VoIP1.app[0].typename UdpSink
config *.stationB_VoIP1.app[0].localPort 8001
config *.stationB_VoIP1.app[0].verbose true
config *.stationB_VoIP2.numApps 1
config *.stationB_VoIP2.app[0].typename UdpSink
config *.stationB_VoIP2.app[0].localPort 8002
config *.stationB_VoIP2.app[0].verbose true
config *.stationB_VoIP1.numApps 2
config *.stationB_VoIP1.app[1].typename UdpBasicApp
config *.stationB_VoIP1.app[1].localPort 8003
config *.stationB_VoIP1.app[1].destAddress "\"stationA_VoIP1\""
config *.stationB_VoIP1.app[1].destPort 7003
config *.stationB_VoIP1.app[1].messageLength 200B
config *.stationB_VoIP1.app[1].sendInterval 20ms
config *.stationB_VoIP1.app[1].startTime 0.8s
config *.stationB_VoIP1.app[1].packetName "\"VoIP_Stream_Reply\""
config *.stationB_VoIP1.app[1].dscp 40
config *.stationB_VoIP1.app[1].verbose true
config *.stationB_VoIP2.numApps 2
config *.stationB_VoIP2.app[1].typename UdpBasicApp
config *.stationB_VoIP2.app[1].localPort 8004
config *.stationB_VoIP2.app[1].destAddress "\"stationA_VoIP2\""
config *.stationB_VoIP2.app[1].destPort 7004
config *.stationB_VoIP2.app[1].messageLength 200B
config *.stationB_VoIP2.app[1].sendInterval 20ms
config *.stationB_VoIP2.app[1].startTime 0.9s
config *.stationB_VoIP2.app[1].packetName "\"VoIP_Stream_Reply\""
config *.stationB_VoIP2.app[1].dscp 40
config *.stationB_VoIP2.app[1].verbose true
config *.stationA_VoIP1.numApps 2
config *.stationA_VoIP1.app[1].typename UdpSink
config *.stationA_VoIP1.app[1].localPort 7003
config *.stationA_VoIP1.app[1].verbose true
config *.stationA_VoIP2.numApps 2
config *.stationA_VoIP2.app[1].typename UdpSink
config *.stationA_VoIP2.app[1].localPort 7004
config *.stationA_VoIP2.app[1].verbose true
config *.stationA_OMServer.numApps 2
config *.stationA_OMServer.app[1].typename UdpBasicApp
config *.stationA_OMServer.app[1].localPort 9001
config *.stationA_OMServer.app[1].destAddress "\"stationB_OMServer\""
config *.stationA_OMServer.app[1].destPort 9002
config *.stationA_OMServer.app[1].messageLength "normal(1500B, 500B)"
config *.stationA_OMServer.app[1].sendInterval exponential(0.1s)
config *.stationA_OMServer.app[1].startTime 1s
config *.stationA_OMServer.app[1].packetName "\"OM_Data_Burst\""
config *.stationA_OMServer.app[1].dscp 0
config *.stationA_OMServer.app[1].verbose true
config *.stationB_OMServer.numApps 2
config *.stationB_OMServer.app[1].typename UdpSink
config *.stationB_OMServer.app[1].localPort 9002
config *.stationB_OMServer.app[1].verbose true
config *.stationB_OMServer.numApps 3
config *.stationB_OMServer.app[2].typename UdpBasicApp
config *.stationB_OMServer.app[2].localPort 9003
config *.stationB_OMServer.app[2].destAddress "\"stationA_OMServer\""
config *.stationB_OMServer.app[2].destPort 9004
config *.stationB_OMServer.app[2].messageLength "normal(1500B, 500B)"
config *.stationB_OMServer.app[2].sendInterval exponential(0.1s)
config *.stationB_OMServer.app[2].startTime 1.2s
config *.stationB_OMServer.app[2].packetName "\"OM_Data_Burst_Reply\""
config *.stationB_OMServer.app[2].dscp 0
config *.stationB_OMServer.app[2].verbose true
config *.stationA_OMServer.numApps 3
config *.stationA_OMServer.app[2].typename UdpSink
config *.stationA_OMServer.app[2].localPort 9004
config *.stationA_OMServer.app[2].verbose true
config **.app[*].source.packetSentSignal true
config **.app[*].sink.packetReceivedSignal true
config **.app[*].sink.endToEndDelayStatistic.record true
config **.app[*].sink.delayHistogram.record true
config **.app[*].sink.numReceivedStatistic.record true
config **.app[*].sink.throughputStatistic.record true
config **.app[*].sink.jitterStatistic.record true
config **.app[*].sink.jitterHistogram.record true
config *.stationA_VoIP*.app[*].sink.delayThreshold 150ms
config *.stationA_VoIP*.app[*].sink.jitterThreshold 30ms
config *.stationB_VoIP*.app[*].sink.delayThreshold 150ms
config *.stationB_VoIP*.app[*].sink.jitterThreshold 30ms
config *.stationA_MU.app[0].sink.delayThreshold 30ms
config *.stationA_MU.app[0].sink.jitterThreshold 250us
config *.stationA_BusProtection_MU*.app[*].sink.delayThreshold 30ms
config *.stationA_BusProtection_MU*.app[*].sink.jitterThreshold 250us
config *.stationA_*.displayString "\"i=abstract/pc\""
config *.stationB_*.displayString "\"i=abstract/pc\""
config *.borderGateway*.displayString "\"i=misc/router\""
config *.otnDevice.displayString "\"i=misc/router_vs\""
config *.stationA_MU.displayString "\"i=block/switch,green\""
config *.stationA_Protection.displayString "\"i=block/computer,red\""
config *.stationA_IT.displayString "\"i=block/plug,blue\""
config *.stationB_Protection.displayString "\"i=block/computer,red\""
config *.stationA_BusProtection.displayString "\"i=block/computer,orange\""
config *.stationB_BusProtection.displayString "\"i=block/computer,orange\""
config *.stationA_BusProtection_MU*.displayString "\"i=block/switch,yellow\""
config *.stationB_BusProtection_MU*.displayString "\"i=block/switch,yellow\""
config *.stationA_Camera*.displayString "\"i=device/camera,gray\""
config *.stationB_Camera*.displayString "\"i=device/camera,gray\""
config *.stationA_VoIP*.displayString "\"i=device/iphone,gray\""
config *.stationB_VoIP*.displayString "\"i=device/iphone,gray\""
config *.stationA_OMServer.displayString "\"i=block/server,gray\""
config *.stationB_OMServer.displayString "\"i=block/server,gray\""
config **.channel.displayString "\"ls=black,1\""

vector 0 SmartSubstationTopology.stationA_MU.udp passedUpPk:vector(count) ETV
attr interpolationmode none
attr recordingmode vector(count)
attr source packetSentToUpper
attr title "packets passed up, count"
vector 1 SmartSubstationTopology.stationA_MU.udp droppedPkWrongPort:vector(count) ETV
attr interpolationmode none
attr recordingmode vector(count)
attr source packetDropReasonIsNoPortFound(packetDropped)
attr title "packets dropped (wrong port), count"
vector 2 SmartSubstationTopology.stationA_MU.udp droppedPkBadChecksum:vector(count) ETV
attr interpolationmode none
attr recordingmode vector(count)
attr source packetDropReasonIsIncorrectlyReceived(packetDropped)
attr title "packets dropped (checksum error), count"
vector 3 SmartSubstationTopology.stationA_Protection.udp passedUpPk:vector(count) ETV
attr interpolationmode none
attr recordingmode vector(count)
attr source packetSentToUpper
attr title "packets passed up, count"
vector 4 SmartSubstationTopology.stationA_Protection.udp droppedPkWrongPort:vector(count) ETV
attr interpolationmode none
attr recordingmode vector(count)
attr source packetDropReasonIsNoPortFound(packetDropped)
attr title "packets dropped (wrong port), count"
vector 5 SmartSubstationTopology.stationA_Protection.udp droppedPkBadChecksum:vector(count) ETV
attr interpolationmode none
attr recordingmode vector(count)
attr source packetDropReasonIsIncorrectlyReceived(packetDropped)
attr title "packets dropped (checksum error), count"
vector 6 SmartSubstationTopology.stationA_IT.udp passedUpPk:vector(count) ETV
attr interpolationmode none
attr recordingmode vector(count)
attr source packetSentToUpper
attr title "packets passed up, count"
vector 7 SmartSubstationTopology.stationA_IT.udp droppedPkWrongPort:vector(count) ETV
attr interpolationmode none
attr recordingmode vector(count)
attr source packetDropReasonIsNoPortFound(packetDropped)
attr title "packets dropped (wrong port), count"
vector 8 SmartSubstationTopology.stationA_IT.udp droppedPkBadChecksum:vector(count) ETV
attr interpolationmode none
attr recordingmode vector(count)
attr source packetDropReasonIsIncorrectlyReceived(packetDropped)
attr title "packets dropped (checksum error), count"
vector 9 SmartSubstationTopology.stationA_BusProtection_MU1.udp passedUpPk:vector(count) ETV
attr interpolationmode none
attr recordingmode vector(count)
attr source packetSentToUpper
attr title "packets passed up, count"
vector 10 SmartSubstationTopology.stationA_BusProtection_MU1.udp droppedPkWrongPort:vector(count) ETV
attr interpolationmode none
attr recordingmode vector(count)
attr source packetDropReasonIsNoPortFound(packetDropped)
attr title "packets dropped (wrong port), count"
vector 11 SmartSubstationTopology.stationA_BusProtection_MU1.udp droppedPkBadChecksum:vector(count) ETV
attr interpolationmode none
attr recordingmode vector(count)
attr source packetDropReasonIsIncorrectlyReceived(packetDropped)
attr title "packets dropped (checksum error), count"
vector 12 SmartSubstationTopology.stationA_BusProtection_MU2.udp passedUpPk:vector(count) ETV
attr interpolationmode none
attr recordingmode vector(count)
attr source packetSentToUpper
attr title "packets passed up, count"
vector 13 SmartSubstationTopology.stationA_BusProtection_MU2.udp droppedPkWrongPort:vector(count) ETV
attr interpolationmode none
attr recordingmode vector(count)
attr source packetDropReasonIsNoPortFound(packetDropped)
attr title "packets dropped (wrong port), count"
vector 14 SmartSubstationTopology.stationA_BusProtection_MU2.udp droppedPkBadChecksum:vector(count) ETV
attr interpolationmode none
attr recordingmode vector(count)
attr source packetDropReasonIsIncorrectlyReceived(packetDropped)
attr title "packets dropped (checksum error), count"
vector 15 SmartSubstationTopology.stationA_BusProtection_MU3.udp passedUpPk:vector(count) ETV
attr interpolationmode none
attr recordingmode vector(count)
attr source packetSentToUpper
attr title "packets passed up, count"
vector 16 SmartSubstationTopology.stationA_BusProtection_MU3.udp droppedPkWrongPort:vector(count) ETV
attr interpolationmode none
attr recordingmode vector(count)
attr source packetDropReasonIsNoPortFound(packetDropped)
attr title "packets dropped (wrong port), count"
vector 17 SmartSubstationTopology.stationA_BusProtection_MU3.udp droppedPkBadChecksum:vector(count) ETV
attr interpolationmode none
attr recordingmode vector(count)
attr source packetDropReasonIsIncorrectlyReceived(packetDropped)
attr title "packets dropped (checksum error), count"
vector 18 SmartSubstationTopology.stationA_BusProtection.udp passedUpPk:vector(count) ETV
attr interpolationmode none
attr recordingmode vector(count)
attr source packetSentToUpper
attr title "packets passed up, count"
vector 19 SmartSubstationTopology.stationA_BusProtection.udp droppedPkWrongPort:vector(count) ETV
attr interpolationmode none
attr recordingmode vector(count)
attr source packetDropReasonIsNoPortFound(packetDropped)
attr title "packets dropped (wrong port), count"
vector 20 SmartSubstationTopology.stationA_BusProtection.udp droppedPkBadChecksum:vector(count) ETV
attr interpolationmode none
attr recordingmode vector(count)
attr source packetDropReasonIsIncorrectlyReceived(packetDropped)
attr title "packets dropped (checksum error), count"
vector 21 SmartSubstationTopology.stationA_Camera1.udp passedUpPk:vector(count) ETV
attr interpolationmode none
attr recordingmode vector(count)
attr source packetSentToUpper
attr title "packets passed up, count"
vector 22 SmartSubstationTopology.stationA_Camera1.udp droppedPkWrongPort:vector(count) ETV
attr interpolationmode none
attr recordingmode vector(count)
attr source packetDropReasonIsNoPortFound(packetDropped)
attr title "packets dropped (wrong port), count"
vector 23 SmartSubstationTopology.stationA_Camera1.udp droppedPkBadChecksum:vector(count) ETV
attr interpolationmode none
attr recordingmode vector(count)
attr source packetDropReasonIsIncorrectlyReceived(packetDropped)
attr title "packets dropped (checksum error), count"
vector 24 SmartSubstationTopology.stationA_Camera2.udp passedUpPk:vector(count) ETV
attr interpolationmode none
attr recordingmode vector(count)
attr source packetSentToUpper
attr title "packets passed up, count"
vector 25 SmartSubstationTopology.stationA_Camera2.udp droppedPkWrongPort:vector(count) ETV
attr interpolationmode none
attr recordingmode vector(count)
attr source packetDropReasonIsNoPortFound(packetDropped)
attr title "packets dropped (wrong port), count"
vector 26 SmartSubstationTopology.stationA_Camera2.udp droppedPkBadChecksum:vector(count) ETV
attr interpolationmode none
attr recordingmode vector(count)
attr source packetDropReasonIsIncorrectlyReceived(packetDropped)
attr title "packets dropped (checksum error), count"
vector 27 SmartSubstationTopology.stationA_Camera3.udp passedUpPk:vector(count) ETV
attr interpolationmode none
attr recordingmode vector(count)
attr source packetSentToUpper
attr title "packets passed up, count"
vector 28 SmartSubstationTopology.stationA_Camera3.udp droppedPkWrongPort:vector(count) ETV
attr interpolationmode none
attr recordingmode vector(count)
attr source packetDropReasonIsNoPortFound(packetDropped)
attr title "packets dropped (wrong port), count"
vector 29 SmartSubstationTopology.stationA_Camera3.udp droppedPkBadChecksum:vector(count) ETV
attr interpolationmode none
attr recordingmode vector(count)
attr source packetDropReasonIsIncorrectlyReceived(packetDropped)
attr title "packets dropped (checksum error), count"
vector 30 SmartSubstationTopology.stationA_Camera4.udp passedUpPk:vector(count) ETV
attr interpolationmode none
attr recordingmode vector(count)
attr source packetSentToUpper
attr title "packets passed up, count"
vector 31 SmartSubstationTopology.stationA_Camera4.udp droppedPkWrongPort:vector(count) ETV
attr interpolationmode none
attr recordingmode vector(count)
attr source packetDropReasonIsNoPortFound(packetDropped)
attr title "packets dropped (wrong port), count"
vector 32 SmartSubstationTopology.stationA_Camera4.udp droppedPkBadChecksum:vector(count) ETV
attr interpolationmode none
attr recordingmode vector(count)
attr source packetDropReasonIsIncorrectlyReceived(packetDropped)
attr title "packets dropped (checksum error), count"
vector 33 SmartSubstationTopology.stationA_Camera5.udp passedUpPk:vector(count) ETV
attr interpolationmode none
attr recordingmode vector(count)
attr source packetSentToUpper
attr title "packets passed up, count"
vector 34 SmartSubstationTopology.stationA_Camera5.udp droppedPkWrongPort:vector(count) ETV
attr interpolationmode none
attr recordingmode vector(count)
attr source packetDropReasonIsNoPortFound(packetDropped)
attr title "packets dropped (wrong port), count"
vector 35 SmartSubstationTopology.stationA_Camera5.udp droppedPkBadChecksum:vector(count) ETV
attr interpolationmode none
attr recordingmode vector(count)
attr source packetDropReasonIsIncorrectlyReceived(packetDropped)
attr title "packets dropped (checksum error), count"
vector 36 SmartSubstationTopology.stationA_Camera6.udp passedUpPk:vector(count) ETV
attr interpolationmode none
attr recordingmode vector(count)
attr source packetSentToUpper
attr title "packets passed up, count"
vector 37 SmartSubstationTopology.stationA_Camera6.udp droppedPkWrongPort:vector(count) ETV
attr interpolationmode none
attr recordingmode vector(count)
attr source packetDropReasonIsNoPortFound(packetDropped)
attr title "packets dropped (wrong port), count"
vector 38 SmartSubstationTopology.stationA_Camera6.udp droppedPkBadChecksum:vector(count) ETV
attr interpolationmode none
attr recordingmode vector(count)
attr source packetDropReasonIsIncorrectlyReceived(packetDropped)
attr title "packets dropped (checksum error), count"
vector 39 SmartSubstationTopology.stationA_Camera7.udp passedUpPk:vector(count) ETV
attr interpolationmode none
attr recordingmode vector(count)
attr source packetSentToUpper
attr title "packets passed up, count"
vector 40 SmartSubstationTopology.stationA_Camera7.udp droppedPkWrongPort:vector(count) ETV
attr interpolationmode none
attr recordingmode vector(count)
attr source packetDropReasonIsNoPortFound(packetDropped)
attr title "packets dropped (wrong port), count"
vector 41 SmartSubstationTopology.stationA_Camera7.udp droppedPkBadChecksum:vector(count) ETV
attr interpolationmode none
attr recordingmode vector(count)
attr source packetDropReasonIsIncorrectlyReceived(packetDropped)
attr title "packets dropped (checksum error), count"
vector 42 SmartSubstationTopology.stationA_Camera8.udp passedUpPk:vector(count) ETV
attr interpolationmode none
attr recordingmode vector(count)
attr source packetSentToUpper
attr title "packets passed up, count"
vector 43 SmartSubstationTopology.stationA_Camera8.udp droppedPkWrongPort:vector(count) ETV
attr interpolationmode none
attr recordingmode vector(count)
attr source packetDropReasonIsNoPortFound(packetDropped)
attr title "packets dropped (wrong port), count"
vector 44 SmartSubstationTopology.stationA_Camera8.udp droppedPkBadChecksum:vector(count) ETV
attr interpolationmode none
attr recordingmode vector(count)
attr source packetDropReasonIsIncorrectlyReceived(packetDropped)
attr title "packets dropped (checksum error), count"
vector 45 SmartSubstationTopology.stationA_Camera9.udp passedUpPk:vector(count) ETV
attr interpolationmode none
attr recordingmode vector(count)
attr source packetSentToUpper
attr title "packets passed up, count"
vector 46 SmartSubstationTopology.stationA_Camera9.udp droppedPkWrongPort:vector(count) ETV
attr interpolationmode none
attr recordingmode vector(count)
attr source packetDropReasonIsNoPortFound(packetDropped)
attr title "packets dropped (wrong port), count"
vector 47 SmartSubstationTopology.stationA_Camera9.udp droppedPkBadChecksum:vector(count) ETV
attr interpolationmode none
attr recordingmode vector(count)
attr source packetDropReasonIsIncorrectlyReceived(packetDropped)
attr title "packets dropped (checksum error), count"
vector 48 SmartSubstationTopology.stationA_Camera10.udp passedUpPk:vector(count) ETV
attr interpolationmode none
attr recordingmode vector(count)
attr source packetSentToUpper
attr title "packets passed up, count"
vector 49 SmartSubstationTopology.stationA_Camera10.udp droppedPkWrongPort:vector(count) ETV
attr interpolationmode none
attr recordingmode vector(count)
attr source packetDropReasonIsNoPortFound(packetDropped)
attr title "packets dropped (wrong port), count"
vector 50 SmartSubstationTopology.stationA_Camera10.udp droppedPkBadChecksum:vector(count) ETV
attr interpolationmode none
attr recordingmode vector(count)
attr source packetDropReasonIsIncorrectlyReceived(packetDropped)
attr title "packets dropped (checksum error), count"
vector 51 SmartSubstationTopology.stationA_VoIP1.udp passedUpPk:vector(count) ETV
attr interpolationmode none
attr recordingmode vector(count)
attr source packetSentToUpper
attr title "packets passed up, count"
vector 52 SmartSubstationTopology.stationA_VoIP1.udp droppedPkWrongPort:vector(count) ETV
attr interpolationmode none
attr recordingmode vector(count)
attr source packetDropReasonIsNoPortFound(packetDropped)
attr title "packets dropped (wrong port), count"
vector 53 SmartSubstationTopology.stationA_VoIP1.udp droppedPkBadChecksum:vector(count) ETV
attr interpolationmode none
attr recordingmode vector(count)
attr source packetDropReasonIsIncorrectlyReceived(packetDropped)
attr title "packets dropped (checksum error), count"
vector 54 SmartSubstationTopology.stationA_VoIP2.udp passedUpPk:vector(count) ETV
attr interpolationmode none
attr recordingmode vector(count)
attr source packetSentToUpper
attr title "packets passed up, count"
vector 55 SmartSubstationTopology.stationA_VoIP2.udp droppedPkWrongPort:vector(count) ETV
attr interpolationmode none
attr recordingmode vector(count)
attr source packetDropReasonIsNoPortFound(packetDropped)
attr title "packets dropped (wrong port), count"
vector 56 SmartSubstationTopology.stationA_VoIP2.udp droppedPkBadChecksum:vector(count) ETV
attr interpolationmode none
attr recordingmode vector(count)
attr source packetDropReasonIsIncorrectlyReceived(packetDropped)
attr title "packets dropped (checksum error), count"
vector 57 SmartSubstationTopology.stationA_OMServer.udp passedUpPk:vector(count) ETV
attr interpolationmode none
attr recordingmode vector(count)
attr source packetSentToUpper
attr title "packets passed up, count"
vector 58 SmartSubstationTopology.stationA_OMServer.udp droppedPkWrongPort:vector(count) ETV
attr interpolationmode none
attr recordingmode vector(count)
attr source packetDropReasonIsNoPortFound(packetDropped)
attr title "packets dropped (wrong port), count"
vector 59 SmartSubstationTopology.stationA_OMServer.udp droppedPkBadChecksum:vector(count) ETV
attr interpolationmode none
attr recordingmode vector(count)
attr source packetDropReasonIsIncorrectlyReceived(packetDropped)
attr title "packets dropped (checksum error), count"
vector 60 SmartSubstationTopology.stationB_MU.udp passedUpPk:vector(count) ETV
attr interpolationmode none
attr recordingmode vector(count)
attr source packetSentToUpper
attr title "packets passed up, count"
vector 61 SmartSubstationTopology.stationB_MU.udp droppedPkWrongPort:vector(count) ETV
attr interpolationmode none
attr recordingmode vector(count)
attr source packetDropReasonIsNoPortFound(packetDropped)
attr title "packets dropped (wrong port), count"
vector 62 SmartSubstationTopology.stationB_MU.udp droppedPkBadChecksum:vector(count) ETV
attr interpolationmode none
attr recordingmode vector(count)
attr source packetDropReasonIsIncorrectlyReceived(packetDropped)
attr title "packets dropped (checksum error), count"
vector 63 SmartSubstationTopology.stationB_Protection.udp passedUpPk:vector(count) ETV
attr interpolationmode none
attr recordingmode vector(count)
attr source packetSentToUpper
attr title "packets passed up, count"
vector 64 SmartSubstationTopology.stationB_Protection.udp droppedPkWrongPort:vector(count) ETV
attr interpolationmode none
attr recordingmode vector(count)
attr source packetDropReasonIsNoPortFound(packetDropped)
attr title "packets dropped (wrong port), count"
vector 65 SmartSubstationTopology.stationB_Protection.udp droppedPkBadChecksum:vector(count) ETV
attr interpolationmode none
attr recordingmode vector(count)
attr source packetDropReasonIsIncorrectlyReceived(packetDropped)
attr title "packets dropped (checksum error), count"
vector 66 SmartSubstationTopology.stationB_IT.udp passedUpPk:vector(count) ETV
attr interpolationmode none
attr recordingmode vector(count)
attr source packetSentToUpper
attr title "packets passed up, count"
vector 67 SmartSubstationTopology.stationB_IT.udp droppedPkWrongPort:vector(count) ETV
attr interpolationmode none
attr recordingmode vector(count)
attr source packetDropReasonIsNoPortFound(packetDropped)
attr title "packets dropped (wrong port), count"
vector 68 SmartSubstationTopology.stationB_IT.udp droppedPkBadChecksum:vector(count) ETV
attr interpolationmode none
attr recordingmode vector(count)
attr source packetDropReasonIsIncorrectlyReceived(packetDropped)
attr title "packets dropped (checksum error), count"
vector 69 SmartSubstationTopology.stationB_BusProtection_MU1.udp passedUpPk:vector(count) ETV
attr interpolationmode none
attr recordingmode vector(count)
attr source packetSentToUpper
attr title "packets passed up, count"
vector 70 SmartSubstationTopology.stationB_BusProtection_MU1.udp droppedPkWrongPort:vector(count) ETV
attr interpolationmode none
attr recordingmode vector(count)
attr source packetDropReasonIsNoPortFound(packetDropped)
attr title "packets dropped (wrong port), count"
vector 71 SmartSubstationTopology.stationB_BusProtection_MU1.udp droppedPkBadChecksum:vector(count) ETV
attr interpolationmode none
attr recordingmode vector(count)
attr source packetDropReasonIsIncorrectlyReceived(packetDropped)
attr title "packets dropped (checksum error), count"
vector 72 SmartSubstationTopology.stationB_BusProtection_MU2.udp passedUpPk:vector(count) ETV
attr interpolationmode none
attr recordingmode vector(count)
attr source packetSentToUpper
attr title "packets passed up, count"
vector 73 SmartSubstationTopology.stationB_BusProtection_MU2.udp droppedPkWrongPort:vector(count) ETV
attr interpolationmode none
attr recordingmode vector(count)
attr source packetDropReasonIsNoPortFound(packetDropped)
attr title "packets dropped (wrong port), count"
vector 74 SmartSubstationTopology.stationB_BusProtection_MU2.udp droppedPkBadChecksum:vector(count) ETV
attr interpolationmode none
attr recordingmode vector(count)
attr source packetDropReasonIsIncorrectlyReceived(packetDropped)
attr title "packets dropped (checksum error), count"
vector 75 SmartSubstationTopology.stationB_BusProtection_MU3.udp passedUpPk:vector(count) ETV
attr interpolationmode none
attr recordingmode vector(count)
attr source packetSentToUpper
attr title "packets passed up, count"
vector 76 SmartSubstationTopology.stationB_BusProtection_MU3.udp droppedPkWrongPort:vector(count) ETV
attr interpolationmode none
attr recordingmode vector(count)
attr source packetDropReasonIsNoPortFound(packetDropped)
attr title "packets dropped (wrong port), count"
vector 77 SmartSubstationTopology.stationB_BusProtection_MU3.udp droppedPkBadChecksum:vector(count) ETV
attr interpolationmode none
attr recordingmode vector(count)
attr source packetDropReasonIsIncorrectlyReceived(packetDropped)
attr title "packets dropped (checksum error), count"
vector 78 SmartSubstationTopology.stationB_BusProtection.udp passedUpPk:vector(count) ETV
attr interpolationmode none
attr recordingmode vector(count)
attr source packetSentToUpper
attr title "packets passed up, count"
vector 79 SmartSubstationTopology.stationB_BusProtection.udp droppedPkWrongPort:vector(count) ETV
attr interpolationmode none
attr recordingmode vector(count)
attr source packetDropReasonIsNoPortFound(packetDropped)
attr title "packets dropped (wrong port), count"
vector 80 SmartSubstationTopology.stationB_BusProtection.udp droppedPkBadChecksum:vector(count) ETV
attr interpolationmode none
attr recordingmode vector(count)
attr source packetDropReasonIsIncorrectlyReceived(packetDropped)
attr title "packets dropped (checksum error), count"
vector 81 SmartSubstationTopology.stationB_Camera1.udp passedUpPk:vector(count) ETV
attr interpolationmode none
attr recordingmode vector(count)
attr source packetSentToUpper
attr title "packets passed up, count"
vector 82 SmartSubstationTopology.stationB_Camera1.udp droppedPkWrongPort:vector(count) ETV
attr interpolationmode none
attr recordingmode vector(count)
attr source packetDropReasonIsNoPortFound(packetDropped)
attr title "packets dropped (wrong port), count"
vector 83 SmartSubstationTopology.stationB_Camera1.udp droppedPkBadChecksum:vector(count) ETV
attr interpolationmode none
attr recordingmode vector(count)
attr source packetDropReasonIsIncorrectlyReceived(packetDropped)
attr title "packets dropped (checksum error), count"
vector 84 SmartSubstationTopology.stationB_Camera2.udp passedUpPk:vector(count) ETV
attr interpolationmode none
attr recordingmode vector(count)
attr source packetSentToUpper
attr title "packets passed up, count"
vector 85 SmartSubstationTopology.stationB_Camera2.udp droppedPkWrongPort:vector(count) ETV
attr interpolationmode none
attr recordingmode vector(count)
attr source packetDropReasonIsNoPortFound(packetDropped)
attr title "packets dropped (wrong port), count"
vector 86 SmartSubstationTopology.stationB_Camera2.udp droppedPkBadChecksum:vector(count) ETV
attr interpolationmode none
attr recordingmode vector(count)
attr source packetDropReasonIsIncorrectlyReceived(packetDropped)
attr title "packets dropped (checksum error), count"
vector 87 SmartSubstationTopology.stationB_Camera3.udp passedUpPk:vector(count) ETV
attr interpolationmode none
attr recordingmode vector(count)
attr source packetSentToUpper
attr title "packets passed up, count"
vector 88 SmartSubstationTopology.stationB_Camera3.udp droppedPkWrongPort:vector(count) ETV
attr interpolationmode none
attr recordingmode vector(count)
attr source packetDropReasonIsNoPortFound(packetDropped)
attr title "packets dropped (wrong port), count"
vector 89 SmartSubstationTopology.stationB_Camera3.udp droppedPkBadChecksum:vector(count) ETV
attr interpolationmode none
attr recordingmode vector(count)
attr source packetDropReasonIsIncorrectlyReceived(packetDropped)
attr title "packets dropped (checksum error), count"
vector 90 SmartSubstationTopology.stationB_Camera4.udp passedUpPk:vector(count) ETV
attr interpolationmode none
attr recordingmode vector(count)
attr source packetSentToUpper
attr title "packets passed up, count"
vector 91 SmartSubstationTopology.stationB_Camera4.udp droppedPkWrongPort:vector(count) ETV
attr interpolationmode none
attr recordingmode vector(count)
attr source packetDropReasonIsNoPortFound(packetDropped)
attr title "packets dropped (wrong port), count"
vector 92 SmartSubstationTopology.stationB_Camera4.udp droppedPkBadChecksum:vector(count) ETV
attr interpolationmode none
attr recordingmode vector(count)
attr source packetDropReasonIsIncorrectlyReceived(packetDropped)
attr title "packets dropped (checksum error), count"
vector 93 SmartSubstationTopology.stationB_Camera5.udp passedUpPk:vector(count) ETV
attr interpolationmode none
attr recordingmode vector(count)
attr source packetSentToUpper
attr title "packets passed up, count"
vector 94 SmartSubstationTopology.stationB_Camera5.udp droppedPkWrongPort:vector(count) ETV
attr interpolationmode none
attr recordingmode vector(count)
attr source packetDropReasonIsNoPortFound(packetDropped)
attr title "packets dropped (wrong port), count"
vector 95 SmartSubstationTopology.stationB_Camera5.udp droppedPkBadChecksum:vector(count) ETV
attr interpolationmode none
attr recordingmode vector(count)
attr source packetDropReasonIsIncorrectlyReceived(packetDropped)
attr title "packets dropped (checksum error), count"
vector 96 SmartSubstationTopology.stationB_Camera6.udp passedUpPk:vector(count) ETV
attr interpolationmode none
attr recordingmode vector(count)
attr source packetSentToUpper
attr title "packets passed up, count"
vector 97 SmartSubstationTopology.stationB_Camera6.udp droppedPkWrongPort:vector(count) ETV
attr interpolationmode none
attr recordingmode vector(count)
attr source packetDropReasonIsNoPortFound(packetDropped)
attr title "packets dropped (wrong port), count"
vector 98 SmartSubstationTopology.stationB_Camera6.udp droppedPkBadChecksum:vector(count) ETV
attr interpolationmode none
attr recordingmode vector(count)
attr source packetDropReasonIsIncorrectlyReceived(packetDropped)
attr title "packets dropped (checksum error), count"
vector 99 SmartSubstationTopology.stationB_Camera7.udp passedUpPk:vector(count) ETV
attr interpolationmode none
attr recordingmode vector(count)
attr source packetSentToUpper
attr title "packets passed up, count"
vector 100 SmartSubstationTopology.stationB_Camera7.udp droppedPkWrongPort:vector(count) ETV
attr interpolationmode none
attr recordingmode vector(count)
attr source packetDropReasonIsNoPortFound(packetDropped)
attr title "packets dropped (wrong port), count"
vector 101 SmartSubstationTopology.stationB_Camera7.udp droppedPkBadChecksum:vector(count) ETV
attr interpolationmode none
attr recordingmode vector(count)
attr source packetDropReasonIsIncorrectlyReceived(packetDropped)
attr title "packets dropped (checksum error), count"
vector 102 SmartSubstationTopology.stationB_Camera8.udp passedUpPk:vector(count) ETV
attr interpolationmode none
attr recordingmode vector(count)
attr source packetSentToUpper
attr title "packets passed up, count"
vector 103 SmartSubstationTopology.stationB_Camera8.udp droppedPkWrongPort:vector(count) ETV
attr interpolationmode none
attr recordingmode vector(count)
attr source packetDropReasonIsNoPortFound(packetDropped)
attr title "packets dropped (wrong port), count"
vector 104 SmartSubstationTopology.stationB_Camera8.udp droppedPkBadChecksum:vector(count) ETV
attr interpolationmode none
attr recordingmode vector(count)
attr source packetDropReasonIsIncorrectlyReceived(packetDropped)
attr title "packets dropped (checksum error), count"
vector 105 SmartSubstationTopology.stationB_Camera9.udp passedUpPk:vector(count) ETV
attr interpolationmode none
attr recordingmode vector(count)
attr source packetSentToUpper
attr title "packets passed up, count"
vector 106 SmartSubstationTopology.stationB_Camera9.udp droppedPkWrongPort:vector(count) ETV
attr interpolationmode none
attr recordingmode vector(count)
attr source packetDropReasonIsNoPortFound(packetDropped)
attr title "packets dropped (wrong port), count"
vector 107 SmartSubstationTopology.stationB_Camera9.udp droppedPkBadChecksum:vector(count) ETV
attr interpolationmode none
attr recordingmode vector(count)
attr source packetDropReasonIsIncorrectlyReceived(packetDropped)
attr title "packets dropped (checksum error), count"
vector 108 SmartSubstationTopology.stationB_Camera10.udp passedUpPk:vector(count) ETV
attr interpolationmode none
attr recordingmode vector(count)
attr source packetSentToUpper
attr title "packets passed up, count"
vector 109 SmartSubstationTopology.stationB_Camera10.udp droppedPkWrongPort:vector(count) ETV
attr interpolationmode none
attr recordingmode vector(count)
attr source packetDropReasonIsNoPortFound(packetDropped)
attr title "packets dropped (wrong port), count"
vector 110 SmartSubstationTopology.stationB_Camera10.udp droppedPkBadChecksum:vector(count) ETV
attr interpolationmode none
attr recordingmode vector(count)
attr source packetDropReasonIsIncorrectlyReceived(packetDropped)
attr title "packets dropped (checksum error), count"
vector 111 SmartSubstationTopology.stationB_VoIP1.udp passedUpPk:vector(count) ETV
attr interpolationmode none
attr recordingmode vector(count)
attr source packetSentToUpper
attr title "packets passed up, count"
vector 112 SmartSubstationTopology.stationB_VoIP1.udp droppedPkWrongPort:vector(count) ETV
attr interpolationmode none
attr recordingmode vector(count)
attr source packetDropReasonIsNoPortFound(packetDropped)
attr title "packets dropped (wrong port), count"
vector 113 SmartSubstationTopology.stationB_VoIP1.udp droppedPkBadChecksum:vector(count) ETV
attr interpolationmode none
attr recordingmode vector(count)
attr source packetDropReasonIsIncorrectlyReceived(packetDropped)
attr title "packets dropped (checksum error), count"
vector 114 SmartSubstationTopology.stationB_VoIP2.udp passedUpPk:vector(count) ETV
attr interpolationmode none
attr recordingmode vector(count)
attr source packetSentToUpper
attr title "packets passed up, count"
vector 115 SmartSubstationTopology.stationB_VoIP2.udp droppedPkWrongPort:vector(count) ETV
attr interpolationmode none
attr recordingmode vector(count)
attr source packetDropReasonIsNoPortFound(packetDropped)
attr title "packets dropped (wrong port), count"
vector 116 SmartSubstationTopology.stationB_VoIP2.udp droppedPkBadChecksum:vector(count) ETV
attr interpolationmode none
attr recordingmode vector(count)
attr source packetDropReasonIsIncorrectlyReceived(packetDropped)
attr title "packets dropped (checksum error), count"
vector 117 SmartSubstationTopology.stationB_OMServer.udp passedUpPk:vector(count) ETV
attr interpolationmode none
attr recordingmode vector(count)
attr source packetSentToUpper
attr title "packets passed up, count"
vector 118 SmartSubstationTopology.stationB_OMServer.udp droppedPkWrongPort:vector(count) ETV
attr interpolationmode none
attr recordingmode vector(count)
attr source packetDropReasonIsNoPortFound(packetDropped)
attr title "packets dropped (wrong port), count"
vector 119 SmartSubstationTopology.stationB_OMServer.udp droppedPkBadChecksum:vector(count) ETV
attr interpolationmode none
attr recordingmode vector(count)
attr source packetDropReasonIsIncorrectlyReceived(packetDropped)
attr title "packets dropped (checksum error), count"
vector 120 SmartSubstationTopology.borderGateway1.udp passedUpPk:vector(count) ETV
attr interpolationmode none
attr recordingmode vector(count)
attr source packetSentToUpper
attr title "packets passed up, count"
vector 121 SmartSubstationTopology.borderGateway1.udp droppedPkWrongPort:vector(count) ETV
attr interpolationmode none
attr recordingmode vector(count)
attr source packetDropReasonIsNoPortFound(packetDropped)
attr title "packets dropped (wrong port), count"
vector 122 SmartSubstationTopology.borderGateway1.udp droppedPkBadChecksum:vector(count) ETV
attr interpolationmode none
attr recordingmode vector(count)
attr source packetDropReasonIsIncorrectlyReceived(packetDropped)
attr title "packets dropped (checksum error), count"
vector 123 SmartSubstationTopology.borderGateway2.udp passedUpPk:vector(count) ETV
attr interpolationmode none
attr recordingmode vector(count)
attr source packetSentToUpper
attr title "packets passed up, count"
vector 124 SmartSubstationTopology.borderGateway2.udp droppedPkWrongPort:vector(count) ETV
attr interpolationmode none
attr recordingmode vector(count)
attr source packetDropReasonIsNoPortFound(packetDropped)
attr title "packets dropped (wrong port), count"
vector 125 SmartSubstationTopology.borderGateway2.udp droppedPkBadChecksum:vector(count) ETV
attr interpolationmode none
attr recordingmode vector(count)
attr source packetDropReasonIsIncorrectlyReceived(packetDropped)
attr title "packets dropped (checksum error), count"
vector 126 SmartSubstationTopology.otnDevice.udp passedUpPk:vector(count) ETV
attr interpolationmode none
attr recordingmode vector(count)
attr source packetSentToUpper
attr title "packets passed up, count"
vector 127 SmartSubstationTopology.otnDevice.udp droppedPkWrongPort:vector(count) ETV
attr interpolationmode none
attr recordingmode vector(count)
attr source packetDropReasonIsNoPortFound(packetDropped)
attr title "packets dropped (wrong port), count"
vector 128 SmartSubstationTopology.otnDevice.udp droppedPkBadChecksum:vector(count) ETV
attr interpolationmode none
attr recordingmode vector(count)
attr source packetDropReasonIsIncorrectlyReceived(packetDropped)
attr title "packets dropped (checksum error), count"
vector 129 SmartSubstationTopology.stationA_TSN.ieee8021q.qTagHeaderChecker droppedDataRate:vector ETV
attr interpolationmode linear
attr recordingmode vector
attr source throughput(packetDropped)
attr title "dropped data rate"
attr unit bps
vector 130 SmartSubstationTopology.stationA_TSN.ieee8021r.rTagHeaderChecker droppedDataRate:vector ETV
attr interpolationmode linear
attr recordingmode vector
attr source throughput(packetDropped)
attr title "dropped data rate"
attr unit bps
vector 131 SmartSubstationTopology.stationA_TSN.eth[0].queue outgoingDataRate:vector ETV
attr interpolationmode linear
attr recordingmode vector
attr source throughput(packetPulled)
attr title "outgoing datarate"
attr unit bps
vector 132 SmartSubstationTopology.stationA_TSN.eth[0].queue incomingDataRate:vector ETV
attr interpolationmode linear
attr recordingmode vector
attr source throughput(packetPushStarted)
attr title "incoming datarate"
attr unit bps
vector 133 SmartSubstationTopology.stationA_TSN.eth[1].queue outgoingDataRate:vector ETV
attr interpolationmode linear
attr recordingmode vector
attr source throughput(packetPulled)
attr title "outgoing datarate"
attr unit bps
vector 134 SmartSubstationTopology.stationA_TSN.eth[1].queue incomingDataRate:vector ETV
attr interpolationmode linear
attr recordingmode vector
attr source throughput(packetPushStarted)
attr title "incoming datarate"
attr unit bps
vector 135 SmartSubstationTopology.stationA_TSN.eth[2].queue outgoingDataRate:vector ETV
attr interpolationmode linear
attr recordingmode vector
attr source throughput(packetPulled)
attr title "outgoing datarate"
attr unit bps
vector 136 SmartSubstationTopology.stationA_TSN.eth[2].queue incomingDataRate:vector ETV
attr interpolationmode linear
attr recordingmode vector
attr source throughput(packetPushStarted)
attr title "incoming datarate"
attr unit bps
vector 137 SmartSubstationTopology.stationA_TSN.eth[3].queue outgoingDataRate:vector ETV
attr interpolationmode linear
attr recordingmode vector
attr source throughput(packetPulled)
attr title "outgoing datarate"
attr unit bps
vector 138 SmartSubstationTopology.stationA_TSN.eth[3].queue incomingDataRate:vector ETV
attr interpolationmode linear
attr recordingmode vector
attr source throughput(packetPushStarted)
attr title "incoming datarate"
attr unit bps
vector 139 SmartSubstationTopology.stationA_TSN.eth[4].queue outgoingDataRate:vector ETV
attr interpolationmode linear
attr recordingmode vector
attr source throughput(packetPulled)
attr title "outgoing datarate"
attr unit bps
vector 140 SmartSubstationTopology.stationA_TSN.eth[4].queue incomingDataRate:vector ETV
attr interpolationmode linear
attr recordingmode vector
attr source throughput(packetPushStarted)
attr title "incoming datarate"
attr unit bps
vector 141 SmartSubstationTopology.stationA_TSN.eth[5].queue outgoingDataRate:vector ETV
attr interpolationmode linear
attr recordingmode vector
attr source throughput(packetPulled)
attr title "outgoing datarate"
attr unit bps
vector 142 SmartSubstationTopology.stationA_TSN.eth[5].queue incomingDataRate:vector ETV
attr interpolationmode linear
attr recordingmode vector
attr source throughput(packetPushStarted)
attr title "incoming datarate"
attr unit bps
vector 143 SmartSubstationTopology.stationA_TSN.eth[6].queue outgoingDataRate:vector ETV
attr interpolationmode linear
attr recordingmode vector
attr source throughput(packetPulled)
attr title "outgoing datarate"
attr unit bps
vector 144 SmartSubstationTopology.stationA_TSN.eth[6].queue incomingDataRate:vector ETV
attr interpolationmode linear
attr recordingmode vector
attr source throughput(packetPushStarted)
attr title "incoming datarate"
attr unit bps
vector 145 SmartSubstationTopology.stationA_TSN.eth[7].queue outgoingDataRate:vector ETV
attr interpolationmode linear
attr recordingmode vector
attr source throughput(packetPulled)
attr title "outgoing datarate"
attr unit bps
vector 146 SmartSubstationTopology.stationA_TSN.eth[7].queue incomingDataRate:vector ETV
attr interpolationmode linear
attr recordingmode vector
attr source throughput(packetPushStarted)
attr title "incoming datarate"
attr unit bps
vector 147 SmartSubstationTopology.stationA_TSN.eth[8].queue outgoingDataRate:vector ETV
attr interpolationmode linear
attr recordingmode vector
attr source throughput(packetPulled)
attr title "outgoing datarate"
attr unit bps
vector 148 SmartSubstationTopology.stationA_TSN.eth[8].queue incomingDataRate:vector ETV
attr interpolationmode linear
attr recordingmode vector
attr source throughput(packetPushStarted)
attr title "incoming datarate"
attr unit bps
vector 149 SmartSubstationTopology.stationA_TSN.eth[9].queue outgoingDataRate:vector ETV
attr interpolationmode linear
attr recordingmode vector
attr source throughput(packetPulled)
attr title "outgoing datarate"
attr unit bps
vector 150 SmartSubstationTopology.stationA_TSN.eth[9].queue incomingDataRate:vector ETV
attr interpolationmode linear
attr recordingmode vector
attr source throughput(packetPushStarted)
attr title "incoming datarate"
attr unit bps
vector 151 SmartSubstationTopology.stationA_TSN.eth[10].queue outgoingDataRate:vector ETV
attr interpolationmode linear
attr recordingmode vector
attr source throughput(packetPulled)
attr title "outgoing datarate"
attr unit bps
vector 152 SmartSubstationTopology.stationA_TSN.eth[10].queue incomingDataRate:vector ETV
attr interpolationmode linear
attr recordingmode vector
attr source throughput(packetPushStarted)
attr title "incoming datarate"
attr unit bps
vector 153 SmartSubstationTopology.stationA_TSN.eth[11].queue outgoingDataRate:vector ETV
attr interpolationmode linear
attr recordingmode vector
attr source throughput(packetPulled)
attr title "outgoing datarate"
attr unit bps
vector 154 SmartSubstationTopology.stationA_TSN.eth[11].queue incomingDataRate:vector ETV
attr interpolationmode linear
attr recordingmode vector
attr source throughput(packetPushStarted)
attr title "incoming datarate"
attr unit bps
vector 155 SmartSubstationTopology.stationA_TSN.eth[12].queue outgoingDataRate:vector ETV
attr interpolationmode linear
attr recordingmode vector
attr source throughput(packetPulled)
attr title "outgoing datarate"
attr unit bps
vector 156 SmartSubstationTopology.stationA_TSN.eth[12].queue incomingDataRate:vector ETV
attr interpolationmode linear
attr recordingmode vector
attr source throughput(packetPushStarted)
attr title "incoming datarate"
attr unit bps
vector 157 SmartSubstationTopology.stationA_TSN.eth[13].queue outgoingDataRate:vector ETV
attr interpolationmode linear
attr recordingmode vector
attr source throughput(packetPulled)
attr title "outgoing datarate"
attr unit bps
vector 158 SmartSubstationTopology.stationA_TSN.eth[13].queue incomingDataRate:vector ETV
attr interpolationmode linear
attr recordingmode vector
attr source throughput(packetPushStarted)
attr title "incoming datarate"
attr unit bps
vector 159 SmartSubstationTopology.stationA_TSN.eth[14].queue outgoingDataRate:vector ETV
attr interpolationmode linear
attr recordingmode vector
attr source throughput(packetPulled)
attr title "outgoing datarate"
attr unit bps
vector 160 SmartSubstationTopology.stationA_TSN.eth[14].queue incomingDataRate:vector ETV
attr interpolationmode linear
attr recordingmode vector
attr source throughput(packetPushStarted)
attr title "incoming datarate"
attr unit bps
vector 161 SmartSubstationTopology.stationA_TSN.eth[15].queue outgoingDataRate:vector ETV
attr interpolationmode linear
attr recordingmode vector
attr source throughput(packetPulled)
attr title "outgoing datarate"
attr unit bps
vector 162 SmartSubstationTopology.stationA_TSN.eth[15].queue incomingDataRate:vector ETV
attr interpolationmode linear
attr recordingmode vector
attr source throughput(packetPushStarted)
attr title "incoming datarate"
attr unit bps
vector 163 SmartSubstationTopology.stationA_TSN.eth[16].queue outgoingDataRate:vector ETV
attr interpolationmode linear
attr recordingmode vector
attr source throughput(packetPulled)
attr title "outgoing datarate"
attr unit bps
vector 164 SmartSubstationTopology.stationA_TSN.eth[16].queue incomingDataRate:vector ETV
attr interpolationmode linear
attr recordingmode vector
attr source throughput(packetPushStarted)
attr title "incoming datarate"
attr unit bps
vector 165 SmartSubstationTopology.stationA_TSN.eth[17].queue outgoingDataRate:vector ETV
attr interpolationmode linear
attr recordingmode vector
attr source throughput(packetPulled)
attr title "outgoing datarate"
attr unit bps
vector 166 SmartSubstationTopology.stationA_TSN.eth[17].queue incomingDataRate:vector ETV
attr interpolationmode linear
attr recordingmode vector
attr source throughput(packetPushStarted)
attr title "incoming datarate"
attr unit bps
vector 167 SmartSubstationTopology.stationA_TSN.eth[18].queue outgoingDataRate:vector ETV
attr interpolationmode linear
attr recordingmode vector
attr source throughput(packetPulled)
attr title "outgoing datarate"
attr unit bps
vector 168 SmartSubstationTopology.stationA_TSN.eth[18].queue incomingDataRate:vector ETV
attr interpolationmode linear
attr recordingmode vector
attr source throughput(packetPushStarted)
attr title "incoming datarate"
attr unit bps
vector 169 SmartSubstationTopology.stationA_TSN.eth[19].queue outgoingDataRate:vector ETV
attr interpolationmode linear
attr recordingmode vector
attr source throughput(packetPulled)
attr title "outgoing datarate"
attr unit bps
vector 170 SmartSubstationTopology.stationA_TSN.eth[19].queue incomingDataRate:vector ETV
attr interpolationmode linear
attr recordingmode vector
attr source throughput(packetPushStarted)
attr title "incoming datarate"
attr unit bps
vector 171 SmartSubstationTopology.stationA_TSN.eth[20].queue outgoingDataRate:vector ETV
attr interpolationmode linear
attr recordingmode vector
attr source throughput(packetPulled)
attr title "outgoing datarate"
attr unit bps
vector 172 SmartSubstationTopology.stationA_TSN.eth[20].queue incomingDataRate:vector ETV
attr interpolationmode linear
attr recordingmode vector
attr source throughput(packetPushStarted)
attr title "incoming datarate"
attr unit bps
vector 173 SmartSubstationTopology.stationA_MU.eth[0].queue outgoingDataRate:vector ETV
attr interpolationmode linear
attr recordingmode vector
attr source throughput(packetPulled)
attr title "outgoing datarate"
attr unit bps
vector 174 SmartSubstationTopology.stationA_MU.eth[0].queue incomingDataRate:vector ETV
attr interpolationmode linear
attr recordingmode vector
attr source throughput(packetPushStarted)
attr title "incoming datarate"
attr unit bps
vector 175 SmartSubstationTopology.stationA_Protection.eth[0].queue outgoingDataRate:vector ETV
attr interpolationmode linear
attr recordingmode vector
attr source throughput(packetPulled)
attr title "outgoing datarate"
attr unit bps
vector 176 SmartSubstationTopology.stationA_Protection.eth[0].queue incomingDataRate:vector ETV
attr interpolationmode linear
attr recordingmode vector
attr source throughput(packetPushStarted)
attr title "incoming datarate"
attr unit bps
vector 177 SmartSubstationTopology.stationA_Protection.app[0] throughput:vector ETV
attr recordingmode vector
attr source throughput(packetReceived)
attr title throughput
attr unit bps
vector 178 SmartSubstationTopology.stationA_IT.eth[0].queue outgoingDataRate:vector ETV
attr interpolationmode linear
attr recordingmode vector
attr source throughput(packetPulled)
attr title "outgoing datarate"
attr unit bps
vector 179 SmartSubstationTopology.stationA_IT.eth[0].queue incomingDataRate:vector ETV
attr interpolationmode linear
attr recordingmode vector
attr source throughput(packetPushStarted)
attr title "incoming datarate"
attr unit bps
vector 180 SmartSubstationTopology.stationA_BusProtection_MU1.eth[0].queue outgoingDataRate:vector ETV
attr interpolationmode linear
attr recordingmode vector
attr source throughput(packetPulled)
attr title "outgoing datarate"
attr unit bps
vector 181 SmartSubstationTopology.stationA_BusProtection_MU1.eth[0].queue incomingDataRate:vector ETV
attr interpolationmode linear
attr recordingmode vector
attr source throughput(packetPushStarted)
attr title "incoming datarate"
attr unit bps
vector 182 SmartSubstationTopology.stationA_BusProtection_MU1.app[0] throughput:vector ETV
attr recordingmode vector
attr source throughput(packetReceived)
attr title throughput
attr unit bps
vector 183 SmartSubstationTopology.stationA_BusProtection_MU2.eth[0].queue outgoingDataRate:vector ETV
attr interpolationmode linear
attr recordingmode vector
attr source throughput(packetPulled)
attr title "outgoing datarate"
attr unit bps
vector 184 SmartSubstationTopology.stationA_BusProtection_MU2.eth[0].queue incomingDataRate:vector ETV
attr interpolationmode linear
attr recordingmode vector
attr source throughput(packetPushStarted)
attr title "incoming datarate"
attr unit bps
vector 185 SmartSubstationTopology.stationA_BusProtection_MU2.app[0] throughput:vector ETV
attr recordingmode vector
attr source throughput(packetReceived)
attr title throughput
attr unit bps
vector 186 SmartSubstationTopology.stationA_BusProtection_MU3.eth[0].queue outgoingDataRate:vector ETV
attr interpolationmode linear
attr recordingmode vector
attr source throughput(packetPulled)
attr title "outgoing datarate"
attr unit bps
vector 187 SmartSubstationTopology.stationA_BusProtection_MU3.eth[0].queue incomingDataRate:vector ETV
attr interpolationmode linear
attr recordingmode vector
attr source throughput(packetPushStarted)
attr title "incoming datarate"
attr unit bps
vector 188 SmartSubstationTopology.stationA_BusProtection_MU3.app[0] throughput:vector ETV
attr recordingmode vector
attr source throughput(packetReceived)
attr title throughput
attr unit bps
vector 189 SmartSubstationTopology.stationA_BusProtection.eth[0].queue outgoingDataRate:vector ETV
attr interpolationmode linear
attr recordingmode vector
attr source throughput(packetPulled)
attr title "outgoing datarate"
attr unit bps
vector 190 SmartSubstationTopology.stationA_BusProtection.eth[0].queue incomingDataRate:vector ETV
attr interpolationmode linear
attr recordingmode vector
attr source throughput(packetPushStarted)
attr title "incoming datarate"
attr unit bps
vector 191 SmartSubstationTopology.stationA_BusProtection.app[0] throughput:vector ETV
attr recordingmode vector
attr source throughput(packetReceived)
attr title throughput
attr unit bps
vector 192 SmartSubstationTopology.stationA_Camera1.eth[0].queue outgoingDataRate:vector ETV
attr interpolationmode linear
attr recordingmode vector
attr source throughput(packetPulled)
attr title "outgoing datarate"
attr unit bps
vector 193 SmartSubstationTopology.stationA_Camera1.eth[0].queue incomingDataRate:vector ETV
attr interpolationmode linear
attr recordingmode vector
attr source throughput(packetPushStarted)
attr title "incoming datarate"
attr unit bps
vector 194 SmartSubstationTopology.stationA_Camera2.eth[0].queue outgoingDataRate:vector ETV
attr interpolationmode linear
attr recordingmode vector
attr source throughput(packetPulled)
attr title "outgoing datarate"
attr unit bps
vector 195 SmartSubstationTopology.stationA_Camera2.eth[0].queue incomingDataRate:vector ETV
attr interpolationmode linear
attr recordingmode vector
attr source throughput(packetPushStarted)
attr title "incoming datarate"
attr unit bps
vector 196 SmartSubstationTopology.stationA_Camera3.eth[0].queue outgoingDataRate:vector ETV
attr interpolationmode linear
attr recordingmode vector
attr source throughput(packetPulled)
attr title "outgoing datarate"
attr unit bps
vector 197 SmartSubstationTopology.stationA_Camera3.eth[0].queue incomingDataRate:vector ETV
attr interpolationmode linear
attr recordingmode vector
attr source throughput(packetPushStarted)
attr title "incoming datarate"
attr unit bps
vector 198 SmartSubstationTopology.stationA_Camera4.eth[0].queue outgoingDataRate:vector ETV
attr interpolationmode linear
attr recordingmode vector
attr source throughput(packetPulled)
attr title "outgoing datarate"
attr unit bps
vector 199 SmartSubstationTopology.stationA_Camera4.eth[0].queue incomingDataRate:vector ETV
attr interpolationmode linear
attr recordingmode vector
attr source throughput(packetPushStarted)
attr title "incoming datarate"
attr unit bps
vector 200 SmartSubstationTopology.stationA_Camera5.eth[0].queue outgoingDataRate:vector ETV
attr interpolationmode linear
attr recordingmode vector
attr source throughput(packetPulled)
attr title "outgoing datarate"
attr unit bps
vector 201 SmartSubstationTopology.stationA_Camera5.eth[0].queue incomingDataRate:vector ETV
attr interpolationmode linear
attr recordingmode vector
attr source throughput(packetPushStarted)
attr title "incoming datarate"
attr unit bps
vector 202 SmartSubstationTopology.stationA_Camera6.eth[0].queue outgoingDataRate:vector ETV
attr interpolationmode linear
attr recordingmode vector
attr source throughput(packetPulled)
attr title "outgoing datarate"
attr unit bps
vector 203 SmartSubstationTopology.stationA_Camera6.eth[0].queue incomingDataRate:vector ETV
attr interpolationmode linear
attr recordingmode vector
attr source throughput(packetPushStarted)
attr title "incoming datarate"
attr unit bps
vector 204 SmartSubstationTopology.stationA_Camera7.eth[0].queue outgoingDataRate:vector ETV
attr interpolationmode linear
attr recordingmode vector
attr source throughput(packetPulled)
attr title "outgoing datarate"
attr unit bps
vector 205 SmartSubstationTopology.stationA_Camera7.eth[0].queue incomingDataRate:vector ETV
attr interpolationmode linear
attr recordingmode vector
attr source throughput(packetPushStarted)
attr title "incoming datarate"
attr unit bps
vector 206 SmartSubstationTopology.stationA_Camera8.eth[0].queue outgoingDataRate:vector ETV
attr interpolationmode linear
attr recordingmode vector
attr source throughput(packetPulled)
attr title "outgoing datarate"
attr unit bps
vector 207 SmartSubstationTopology.stationA_Camera8.eth[0].queue incomingDataRate:vector ETV
attr interpolationmode linear
attr recordingmode vector
attr source throughput(packetPushStarted)
attr title "incoming datarate"
attr unit bps
vector 208 SmartSubstationTopology.stationA_Camera9.eth[0].queue outgoingDataRate:vector ETV
attr interpolationmode linear
attr recordingmode vector
attr source throughput(packetPulled)
attr title "outgoing datarate"
attr unit bps
vector 209 SmartSubstationTopology.stationA_Camera9.eth[0].queue incomingDataRate:vector ETV
attr interpolationmode linear
attr recordingmode vector
attr source throughput(packetPushStarted)
attr title "incoming datarate"
attr unit bps
vector 210 SmartSubstationTopology.stationA_Camera10.eth[0].queue outgoingDataRate:vector ETV
attr interpolationmode linear
attr recordingmode vector
attr source throughput(packetPulled)
attr title "outgoing datarate"
attr unit bps
vector 211 SmartSubstationTopology.stationA_Camera10.eth[0].queue incomingDataRate:vector ETV
attr interpolationmode linear
attr recordingmode vector
attr source throughput(packetPushStarted)
attr title "incoming datarate"
attr unit bps
vector 212 SmartSubstationTopology.stationA_VoIP1.eth[0].queue outgoingDataRate:vector ETV
attr interpolationmode linear
attr recordingmode vector
attr source throughput(packetPulled)
attr title "outgoing datarate"
attr unit bps
vector 213 SmartSubstationTopology.stationA_VoIP1.eth[0].queue incomingDataRate:vector ETV
attr interpolationmode linear
attr recordingmode vector
attr source throughput(packetPushStarted)
attr title "incoming datarate"
attr unit bps
vector 214 SmartSubstationTopology.stationA_VoIP2.eth[0].queue outgoingDataRate:vector ETV
attr interpolationmode linear
attr recordingmode vector
attr source throughput(packetPulled)
attr title "outgoing datarate"
attr unit bps
vector 215 SmartSubstationTopology.stationA_VoIP2.eth[0].queue incomingDataRate:vector ETV
attr interpolationmode linear
attr recordingmode vector
attr source throughput(packetPushStarted)
attr title "incoming datarate"
attr unit bps
vector 216 SmartSubstationTopology.stationA_OMServer.eth[0].queue outgoingDataRate:vector ETV
attr interpolationmode linear
attr recordingmode vector
attr source throughput(packetPulled)
attr title "outgoing datarate"
attr unit bps
vector 217 SmartSubstationTopology.stationA_OMServer.eth[0].queue incomingDataRate:vector ETV
attr interpolationmode linear
attr recordingmode vector
attr source throughput(packetPushStarted)
attr title "incoming datarate"
attr unit bps
vector 218 SmartSubstationTopology.stationA_OMServer.app[0] throughput:vector ETV
attr recordingmode vector
attr source throughput(packetReceived)
attr title throughput
attr unit bps
vector 219 SmartSubstationTopology.stationB_TSN.ieee8021q.qTagHeaderChecker droppedDataRate:vector ETV
attr interpolationmode linear
attr recordingmode vector
attr source throughput(packetDropped)
attr title "dropped data rate"
attr unit bps
vector 220 SmartSubstationTopology.stationB_TSN.ieee8021r.rTagHeaderChecker droppedDataRate:vector ETV
attr interpolationmode linear
attr recordingmode vector
attr source throughput(packetDropped)
attr title "dropped data rate"
attr unit bps
vector 221 SmartSubstationTopology.stationB_TSN.eth[0].queue outgoingDataRate:vector ETV
attr interpolationmode linear
attr recordingmode vector
attr source throughput(packetPulled)
attr title "outgoing datarate"
attr unit bps
vector 222 SmartSubstationTopology.stationB_TSN.eth[0].queue incomingDataRate:vector ETV
attr interpolationmode linear
attr recordingmode vector
attr source throughput(packetPushStarted)
attr title "incoming datarate"
attr unit bps
vector 223 SmartSubstationTopology.stationB_TSN.eth[1].queue outgoingDataRate:vector ETV
attr interpolationmode linear
attr recordingmode vector
attr source throughput(packetPulled)
attr title "outgoing datarate"
attr unit bps
vector 224 SmartSubstationTopology.stationB_TSN.eth[1].queue incomingDataRate:vector ETV
attr interpolationmode linear
attr recordingmode vector
attr source throughput(packetPushStarted)
attr title "incoming datarate"
attr unit bps
vector 225 SmartSubstationTopology.stationB_TSN.eth[2].queue outgoingDataRate:vector ETV
attr interpolationmode linear
attr recordingmode vector
attr source throughput(packetPulled)
attr title "outgoing datarate"
attr unit bps
vector 226 SmartSubstationTopology.stationB_TSN.eth[2].queue incomingDataRate:vector ETV
attr interpolationmode linear
attr recordingmode vector
attr source throughput(packetPushStarted)
attr title "incoming datarate"
attr unit bps
vector 227 SmartSubstationTopology.stationB_TSN.eth[3].queue outgoingDataRate:vector ETV
attr interpolationmode linear
attr recordingmode vector
attr source throughput(packetPulled)
attr title "outgoing datarate"
attr unit bps
vector 228 SmartSubstationTopology.stationB_TSN.eth[3].queue incomingDataRate:vector ETV
attr interpolationmode linear
attr recordingmode vector
attr source throughput(packetPushStarted)
attr title "incoming datarate"
attr unit bps
vector 229 SmartSubstationTopology.stationB_TSN.eth[4].queue outgoingDataRate:vector ETV
attr interpolationmode linear
attr recordingmode vector
attr source throughput(packetPulled)
attr title "outgoing datarate"
attr unit bps
vector 230 SmartSubstationTopology.stationB_TSN.eth[4].queue incomingDataRate:vector ETV
attr interpolationmode linear
attr recordingmode vector
attr source throughput(packetPushStarted)
attr title "incoming datarate"
attr unit bps
vector 231 SmartSubstationTopology.stationB_TSN.eth[5].queue outgoingDataRate:vector ETV
attr interpolationmode linear
attr recordingmode vector
attr source throughput(packetPulled)
attr title "outgoing datarate"
attr unit bps
vector 232 SmartSubstationTopology.stationB_TSN.eth[5].queue incomingDataRate:vector ETV
attr interpolationmode linear
attr recordingmode vector
attr source throughput(packetPushStarted)
attr title "incoming datarate"
attr unit bps
vector 233 SmartSubstationTopology.stationB_TSN.eth[6].queue outgoingDataRate:vector ETV
attr interpolationmode linear
attr recordingmode vector
attr source throughput(packetPulled)
attr title "outgoing datarate"
attr unit bps
vector 234 SmartSubstationTopology.stationB_TSN.eth[6].queue incomingDataRate:vector ETV
attr interpolationmode linear
attr recordingmode vector
attr source throughput(packetPushStarted)
attr title "incoming datarate"
attr unit bps
vector 235 SmartSubstationTopology.stationB_TSN.eth[7].queue outgoingDataRate:vector ETV
attr interpolationmode linear
attr recordingmode vector
attr source throughput(packetPulled)
attr title "outgoing datarate"
attr unit bps
vector 236 SmartSubstationTopology.stationB_TSN.eth[7].queue incomingDataRate:vector ETV
attr interpolationmode linear
attr recordingmode vector
attr source throughput(packetPushStarted)
attr title "incoming datarate"
attr unit bps
vector 237 SmartSubstationTopology.stationB_TSN.eth[8].queue outgoingDataRate:vector ETV
attr interpolationmode linear
attr recordingmode vector
attr source throughput(packetPulled)
attr title "outgoing datarate"
attr unit bps
vector 238 SmartSubstationTopology.stationB_TSN.eth[8].queue incomingDataRate:vector ETV
attr interpolationmode linear
attr recordingmode vector
attr source throughput(packetPushStarted)
attr title "incoming datarate"
attr unit bps
vector 239 SmartSubstationTopology.stationB_TSN.eth[9].queue outgoingDataRate:vector ETV
attr interpolationmode linear
attr recordingmode vector
attr source throughput(packetPulled)
attr title "outgoing datarate"
attr unit bps
vector 240 SmartSubstationTopology.stationB_TSN.eth[9].queue incomingDataRate:vector ETV
attr interpolationmode linear
attr recordingmode vector
attr source throughput(packetPushStarted)
attr title "incoming datarate"
attr unit bps
vector 241 SmartSubstationTopology.stationB_TSN.eth[10].queue outgoingDataRate:vector ETV
attr interpolationmode linear
attr recordingmode vector
attr source throughput(packetPulled)
attr title "outgoing datarate"
attr unit bps
vector 242 SmartSubstationTopology.stationB_TSN.eth[10].queue incomingDataRate:vector ETV
attr interpolationmode linear
attr recordingmode vector
attr source throughput(packetPushStarted)
attr title "incoming datarate"
attr unit bps
vector 243 SmartSubstationTopology.stationB_TSN.eth[11].queue outgoingDataRate:vector ETV
attr interpolationmode linear
attr recordingmode vector
attr source throughput(packetPulled)
attr title "outgoing datarate"
attr unit bps
vector 244 SmartSubstationTopology.stationB_TSN.eth[11].queue incomingDataRate:vector ETV
attr interpolationmode linear
attr recordingmode vector
attr source throughput(packetPushStarted)
attr title "incoming datarate"
attr unit bps
vector 245 SmartSubstationTopology.stationB_TSN.eth[12].queue outgoingDataRate:vector ETV
attr interpolationmode linear
attr recordingmode vector
attr source throughput(packetPulled)
attr title "outgoing datarate"
attr unit bps
vector 246 SmartSubstationTopology.stationB_TSN.eth[12].queue incomingDataRate:vector ETV
attr interpolationmode linear
attr recordingmode vector
attr source throughput(packetPushStarted)
attr title "incoming datarate"
attr unit bps
vector 247 SmartSubstationTopology.stationB_TSN.eth[13].queue outgoingDataRate:vector ETV
attr interpolationmode linear
attr recordingmode vector
attr source throughput(packetPulled)
attr title "outgoing datarate"
attr unit bps
vector 248 SmartSubstationTopology.stationB_TSN.eth[13].queue incomingDataRate:vector ETV
attr interpolationmode linear
attr recordingmode vector
attr source throughput(packetPushStarted)
attr title "incoming datarate"
attr unit bps
vector 249 SmartSubstationTopology.stationB_TSN.eth[14].queue outgoingDataRate:vector ETV
attr interpolationmode linear
attr recordingmode vector
attr source throughput(packetPulled)
attr title "outgoing datarate"
attr unit bps
vector 250 SmartSubstationTopology.stationB_TSN.eth[14].queue incomingDataRate:vector ETV
attr interpolationmode linear
attr recordingmode vector
attr source throughput(packetPushStarted)
attr title "incoming datarate"
attr unit bps
vector 251 SmartSubstationTopology.stationB_TSN.eth[15].queue outgoingDataRate:vector ETV
attr interpolationmode linear
attr recordingmode vector
attr source throughput(packetPulled)
attr title "outgoing datarate"
attr unit bps
vector 252 SmartSubstationTopology.stationB_TSN.eth[15].queue incomingDataRate:vector ETV
attr interpolationmode linear
attr recordingmode vector
attr source throughput(packetPushStarted)
attr title "incoming datarate"
attr unit bps
vector 253 SmartSubstationTopology.stationB_TSN.eth[16].queue outgoingDataRate:vector ETV
attr interpolationmode linear
attr recordingmode vector
attr source throughput(packetPulled)
attr title "outgoing datarate"
attr unit bps
vector 254 SmartSubstationTopology.stationB_TSN.eth[16].queue incomingDataRate:vector ETV
attr interpolationmode linear
attr recordingmode vector
attr source throughput(packetPushStarted)
attr title "incoming datarate"
attr unit bps
vector 255 SmartSubstationTopology.stationB_TSN.eth[17].queue outgoingDataRate:vector ETV
attr interpolationmode linear
attr recordingmode vector
attr source throughput(packetPulled)
attr title "outgoing datarate"
attr unit bps
vector 256 SmartSubstationTopology.stationB_TSN.eth[17].queue incomingDataRate:vector ETV
attr interpolationmode linear
attr recordingmode vector
attr source throughput(packetPushStarted)
attr title "incoming datarate"
attr unit bps
vector 257 SmartSubstationTopology.stationB_TSN.eth[18].queue outgoingDataRate:vector ETV
attr interpolationmode linear
attr recordingmode vector
attr source throughput(packetPulled)
attr title "outgoing datarate"
attr unit bps
vector 258 SmartSubstationTopology.stationB_TSN.eth[18].queue incomingDataRate:vector ETV
attr interpolationmode linear
attr recordingmode vector
attr source throughput(packetPushStarted)
attr title "incoming datarate"
attr unit bps
vector 259 SmartSubstationTopology.stationB_TSN.eth[19].queue outgoingDataRate:vector ETV
attr interpolationmode linear
attr recordingmode vector
attr source throughput(packetPulled)
attr title "outgoing datarate"
attr unit bps
vector 260 SmartSubstationTopology.stationB_TSN.eth[19].queue incomingDataRate:vector ETV
attr interpolationmode linear
attr recordingmode vector
attr source throughput(packetPushStarted)
attr title "incoming datarate"
attr unit bps
vector 261 SmartSubstationTopology.stationB_TSN.eth[20].queue outgoingDataRate:vector ETV
attr interpolationmode linear
attr recordingmode vector
attr source throughput(packetPulled)
attr title "outgoing datarate"
attr unit bps
vector 262 SmartSubstationTopology.stationB_TSN.eth[20].queue incomingDataRate:vector ETV
attr interpolationmode linear
attr recordingmode vector
attr source throughput(packetPushStarted)
attr title "incoming datarate"
attr unit bps
vector 263 SmartSubstationTopology.stationB_MU.eth[0].queue outgoingDataRate:vector ETV
attr interpolationmode linear
attr recordingmode vector
attr source throughput(packetPulled)
attr title "outgoing datarate"
attr unit bps
vector 264 SmartSubstationTopology.stationB_MU.eth[0].queue incomingDataRate:vector ETV
attr interpolationmode linear
attr recordingmode vector
attr source throughput(packetPushStarted)
attr title "incoming datarate"
attr unit bps
[...]
attr title "outgoing datarate"
attr unit bps
vector 283 SmartSubstationTopology.stationB_Camera1.eth[0].queue incomingDataRate:vector ETV
attr interpolationmode linear
attr recordingmode vector
attr source throughput(packetPushStarted)
attr title "incoming datarate"
attr unit bps
vector 284 SmartSubstationTopology.stationB_Camera2.eth[0].queue outgoingDataRate:vector ETV
attr interpolationmode linear
attr recordingmode vector
attr source throughput(packetPulled)
attr title "outgoing datarate"
attr unit bps
vector 285 SmartSubstationTopology.stationB_Camera2.eth[0].queue incomingDataRate:vector ETV
attr interpolationmode linear
attr recordingmode vector
attr source throughput(packetPushStarted)
attr title "incoming datarate"
attr unit bps
vector 286 SmartSubstationTopology.stationB_Camera3.eth[0].queue outgoingDataRate:vector ETV
attr interpolationmode linear
attr recordingmode vector
attr source throughput(packetPulled)
attr title "outgoing datarate"
attr unit bps
vector 287 SmartSubstationTopology.stationB_Camera3.eth[0].queue incomingDataRate:vector ETV
attr interpolationmode linear
attr recordingmode vector
attr source throughput(packetPushStarted)
attr title "incoming datarate"
attr unit bps
vector 288 SmartSubstationTopology.stationB_Camera4.eth[0].queue outgoingDataRate:vector ETV
attr interpolationmode linear
attr recordingmode vector
attr source throughput(packetPulled)
attr title "outgoing datarate"
attr unit bps
vector 289 SmartSubstationTopology.stationB_Camera4.eth[0].queue incomingDataRate:vector ETV
attr interpolationmode linear
attr recordingmode vector
attr source throughput(packetPushStarted)
attr title "incoming datarate"
attr unit bps
vector 290 SmartSubstationTopology.stationB_Camera5.eth[0].queue outgoingDataRate:vector ETV
attr interpolationmode linear
attr recordingmode vector
attr source throughput(packetPulled)
attr title "outgoing datarate"
attr unit bps
vector 291 SmartSubstationTopology.stationB_Camera5.eth[0].queue incomingDataRate:vector ETV
attr interpolationmode linear
attr recordingmode vector
attr source throughput(packetPushStarted)
attr title "incoming datarate"
attr unit bps
vector 292 SmartSubstationTopology.stationB_Camera6.eth[0].queue outgoingDataRate:vector ETV
attr interpolationmode linear
attr recordingmode vector
attr source throughput(packetPulled)
attr title "outgoing datarate"
attr unit bps
vector 293 SmartSubstationTopology.stationB_Camera6.eth[0].queue incomingDataRate:vector ETV
attr interpolationmode linear
attr recordingmode vector
attr source throughput(packetPushStarted)
attr title "incoming datarate"
attr unit bps
vector 294 SmartSubstationTopology.stationB_Camera7.eth[0].queue outgoingDataRate:vector ETV
attr interpolationmode linear
attr recordingmode vector
attr source throughput(packetPulled)
attr title "outgoing datarate"
attr unit bps
vector 295 SmartSubstationTopology.stationB_Camera7.eth[0].queue incomingDataRate:vector ETV
attr interpolationmode linear
attr recordingmode vector
attr source throughput(packetPushStarted)
attr title "incoming datarate"
attr unit bps
vector 296 SmartSubstationTopology.stationB_Camera8.eth[0].queue outgoingDataRate:vector ETV
attr interpolationmode linear
attr recordingmode vector
attr source throughput(packetPulled)
attr title "outgoing datarate"
attr unit bps
vector 297 SmartSubstationTopology.stationB_Camera8.eth[0].queue incomingDataRate:vector ETV
attr interpolationmode linear
attr recordingmode vector
attr source throughput(packetPushStarted)
attr title "incoming datarate"
attr unit bps
vector 298 SmartSubstationTopology.stationB_Camera9.eth[0].queue outgoingDataRate:vector ETV
attr interpolationmode linear
attr recordingmode vector
attr source throughput(packetPulled)
attr title "outgoing datarate"
attr unit bps
vector 299 SmartSubstationTopology.stationB_Camera9.eth[0].queue incomingDataRate:vector ETV
attr interpolationmode linear
attr recordingmode vector
attr source throughput(packetPushStarted)
attr title "incoming datarate"
attr unit bps
vector 300 SmartSubstationTopology.stationB_Camera10.eth[0].queue outgoingDataRate:vector ETV
attr interpolationmode linear
attr recordingmode vector
attr source throughput(packetPulled)
attr title "outgoing datarate"
attr unit bps
vector 301 SmartSubstationTopology.stationB_Camera10.eth[0].queue incomingDataRate:vector ETV
attr interpolationmode linear
attr recordingmode vector
attr source throughput(packetPushStarted)
attr title "incoming datarate"
attr unit bps
vector 302 SmartSubstationTopology.stationB_VoIP1.eth[0].queue outgoingDataRate:vector ETV
attr interpolationmode linear
attr recordingmode vector
attr source throughput(packetPulled)
attr title "outgoing datarate"
attr unit bps
vector 303 SmartSubstationTopology.stationB_VoIP1.eth[0].queue incomingDataRate:vector ETV
attr interpolationmode linear
attr recordingmode vector
attr source throughput(packetPushStarted)
attr title "incoming datarate"
attr unit bps
vector 304 SmartSubstationTopology.stationB_VoIP2.eth[0].queue outgoingDataRate:vector ETV
attr interpolationmode linear
attr recordingmode vector
attr source throughput(packetPulled)
attr title "outgoing datarate"
attr unit bps
vector 305 SmartSubstationTopology.stationB_VoIP2.eth[0].queue incomingDataRate:vector ETV
attr interpolationmode linear
attr recordingmode vector
attr source throughput(packetPushStarted)
attr title "incoming datarate"
attr unit bps
vector 306 SmartSubstationTopology.stationB_OMServer.eth[0].queue outgoingDataRate:vector ETV
attr interpolationmode linear
attr recordingmode vector
attr source throughput(packetPulled)
attr title "outgoing datarate"
attr unit bps
vector 307 SmartSubstationTopology.stationB_OMServer.eth[0].queue incomingDataRate:vector ETV
attr interpolationmode linear
attr recordingmode vector
attr source throughput(packetPushStarted)
attr title "incoming datarate"
attr unit bps
vector 308 SmartSubstationTopology.stationB_OMServer.app[0] throughput:vector ETV
attr recordingmode vector
attr source throughput(packetReceived)
attr title throughput
attr unit bps
vector 309 SmartSubstationTopology.borderGateway1.eth[0].queue outgoingDataRate:vector ETV
attr interpolationmode linear
attr recordingmode vector
attr source throughput(packetPulled)
attr title "outgoing datarate"
attr unit bps
vector 310 SmartSubstationTopology.borderGateway1.eth[0].queue incomingDataRate:vector ETV
attr interpolationmode linear
attr recordingmode vector
attr source throughput(packetPushStarted)
attr title "incoming datarate"
attr unit bps
vector 311 SmartSubstationTopology.borderGateway1.eth[1].queue outgoingDataRate:vector ETV
attr interpolationmode linear
attr recordingmode vector
attr source throughput(packetPulled)
attr title "outgoing datarate"
attr unit bps
vector 312 SmartSubstationTopology.borderGateway1.eth[1].queue incomingDataRate:vector ETV
attr interpolationmode linear
attr recordingmode vector
attr source throughput(packetPushStarted)
attr title "incoming datarate"
attr unit bps
vector 313 SmartSubstationTopology.borderGateway2.eth[0].queue outgoingDataRate:vector ETV
attr interpolationmode linear
attr recordingmode vector
attr source throughput(packetPulled)
attr title "outgoing datarate"
attr unit bps
vector 314 SmartSubstationTopology.borderGateway2.eth[0].queue incomingDataRate:vector ETV
attr interpolationmode linear
attr recordingmode vector
attr source throughput(packetPushStarted)
attr title "incoming datarate"
attr unit bps
vector 315 SmartSubstationTopology.borderGateway2.eth[1].queue outgoingDataRate:vector ETV
attr interpolationmode linear
attr recordingmode vector
attr source throughput(packetPulled)
attr title "outgoing datarate"
attr unit bps
vector 316 SmartSubstationTopology.borderGateway2.eth[1].queue incomingDataRate:vector ETV
attr interpolationmode linear
attr recordingmode vector
attr source throughput(packetPushStarted)
attr title "incoming datarate"
attr unit bps
vector 317 SmartSubstationTopology.otnDevice.eth[0].queue outgoingDataRate:vector ETV
attr interpolationmode linear
attr recordingmode vector
attr source throughput(packetPulled)
attr title "outgoing datarate"
attr unit bps
vector 318 SmartSubstationTopology.otnDevice.eth[0].queue incomingDataRate:vector ETV
attr interpolationmode linear
attr recordingmode vector
attr source throughput(packetPushStarted)
attr title "incoming datarate"
attr unit bps
vector 319 SmartSubstationTopology.otnDevice.eth[1].queue outgoingDataRate:vector ETV
attr interpolationmode linear
attr recordingmode vector
attr source throughput(packetPulled)
attr title "outgoing datarate"
attr unit bps
vector 320 SmartSubstationTopology.otnDevice.eth[1].queue incomingDataRate:vector ETV
attr interpolationmode linear
attr recordingmode vector
attr source throughput(packetPushStarted)
attr title "incoming datarate"
attr unit bps
0	94862 9 0 0 0 0 1 0 0 0 0
1	94871 9 0 0 0 0 1 0 0 0 0
2	94880 9 0 0 0 0 1 0 0 0 0
3	94889 9 0 0 0 0 1 0 0 0 0
4	94898 9 0 0 0 0 1 0 0 0 0
5	94907 9 0 0 0 0 1 0 0 0 0
6	94916 9 0 0 0 0 1 0 0 0 0
7	94925 9 0 0 0 0 1 0 0 0 0
8	94934 9 0 0 0 0 1 0 0 0 0
9	94943 9 0 0 0 0 1 0 0 0 0
10	94952 10 0 0 0 0 1 0 0 0 0
11	94962 10 0 0 0 0 1 0 0 0 0
12	94972 10 0 0 0 0 1 0 0 0 0
13	94982 10 0 0 0 0 1 0 0 0 0
14	94992 10 0 0 0 0 1 0 0 0 0
15	95002 10 0 0 0 0 1 0 0 0 0
16	95012 10 0 0 0 0 1 0 0 0 0
17	95022 10 0 0 0 0 1 0 0 0 0
18	95032 10 0 0 0 0 1 0 0 0 0
19	95042 10 0 0 0 0 1 0 0 0 0
20	95052 10 0 0 0 0 1 0 0 0 0
21	95062 10 0 0 0 0 1 0 0 0 0
22	95072 10 0 0 0 0 1 0 0 0 0
23	95082 10 0 0 0 0 1 0 0 0 0
24	95092 10 0 0 0 0 1 0 0 0 0
25	95102 10 0 0 0 0 1 0 0 0 0
26	95112 10 0 0 0 0 1 0 0 0 0
27	95122 10 0 0 0 0 1 0 0 0 0
28	95132 10 0 0 0 0 1 0 0 0 0
29	95142 10 0 0 0 0 1 0 0 0 0
30	95152 10 0 0 0 0 1 0 0 0 0
31	95162 10 0 0 0 0 1 0 0 0 0
32	95172 10 0 0 0 0 1 0 0 0 0
33	95182 10 0 0 0 0 1 0 0 0 0
34	95192 10 0 0 0 0 1 0 0 0 0
35	95202 10 0 0 0 0 1 0 0 0 0
36	95212 10 0 0 0 0 1 0 0 0 0
37	95222 10 0 0 0 0 1 0 0 0 0
38	95232 10 0 0 0 0 1 0 0 0 0
39	95242 10 0 0 0 0 1 0 0 0 0
40	95252 10 0 0 0 0 1 0 0 0 0
41	95262 10 0 0 0 0 1 0 0 0 0
42	95272 10 0 0 0 0 1 0 0 0 0
43	95282 10 0 0 0 0 1 0 0 0 0
44	95292 10 0 0 0 0 1 0 0 0 0
45	95302 10 0 0 0 0 1 0 0 0 0
46	95312 10 0 0 0 0 1 0 0 0 0
47	95322 10 0 0 0 0 1 0 0 0 0
48	95332 10 0 0 0 0 1 0 0 0 0
49	95342 10 0 0 0 0 1 0 0 0 0
50	95352 10 0 0 0 0 1 0 0 0 0
51	95362 10 0 0 0 0 1 0 0 0 0
52	95372 10 0 0 0 0 1 0 0 0 0
53	95382 10 0 0 0 0 1 0 0 0 0
54	95392 10 0 0 0 0 1 0 0 0 0
55	95402 10 0 0 0 0 1 0 0 0 0
56	95412 10 0 0 0 0 1 0 0 0 0
57	95422 10 0 0 0 0 1 0 0 0 0
58	95432 10 0 0 0 0 1 0 0 0 0
59	95442 10 0 0 0 0 1 0 0 0 0
60	95452 10 0 0 0 0 1 0 0 0 0
61	95462 10 0 0 0 0 1 0 0 0 0
62	95472 10 0 0 0 0 1 0 0 0 0
63	95482 10 0 0 0 0 1 0 0 0 0
64	95492 10 0 0 0 0 1 0 0 0 0
65	95502 10 0 0 0 0 1 0 0 0 0
66	95512 10 0 0 0 0 1 0 0 0 0
67	95522 10 0 0 0 0 1 0 0 0 0
68	95532 10 0 0 0 0 1 0 0 0 0
69	95542 10 0 0 0 0 1 0 0 0 0
70	95552 10 0 0 0 0 1 0 0 0 0
71	95562 10 0 0 0 0 1 0 0 0 0
72	95572 10 0 0 0 0 1 0 0 0 0
73	95582 10 0 0 0 0 1 0 0 0 0
74	95592 10 0 0 0 0 1 0 0 0 0
75	95602 10 0 0 0 0 1 0 0 0 0
76	95612 10 0 0 0 0 1 0 0 0 0
77	95622 10 0 0 0 0 1 0 0 0 0
78	95632 10 0 0 0 0 1 0 0 0 0
79	95642 10 0 0 0 0 1 0 0 0 0
80	95652 10 0 0 0 0 1 0 0 0 0
81	95662 10 0 0 0 0 1 0 0 0 0
82	95672 10 0 0 0 0 1 0 0 0 0
83	95682 10 0 0 0 0 1 0 0 0 0
84	95692 10 0 0 0 0 1 0 0 0 0
85	95702 10 0 0 0 0 1 0 0 0 0
86	95712 10 0 0 0 0 1 0 0 0 0
87	95722 10 0 0 0 0 1 0 0 0 0
88	95732 10 0 0 0 0 1 0 0 0 0
89	95742 10 0 0 0 0 1 0 0 0 0
90	95752 10 0 0 0 0 1 0 0 0 0
91	95762 10 0 0 0 0 1 0 0 0 0
92	95772 10 0 0 0 0 1 0 0 0 0
93	95782 10 0 0 0 0 1 0 0 0 0
94	95792 10 0 0 0 0 1 0 0 0 0
95	95802 10 0 0 0 0 1 0 0 0 0
96	95812 10 0 0 0 0 1 0 0 0 0
97	95822 10 0 0 0 0 1 0 0 0 0
98	95832 10 0 0 0 0 1 0 0 0 0
99	95842 10 0 0 0 0 1 0 0 0 0
100	95852 11 0 0 0 0 1 0 0 0 0
101	95863 11 0 0 0 0 1 0 0 0 0
102	95874 11 0 0 0 0 1 0 0 0 0
103	95885 11 0 0 0 0 1 0 0 0 0
104	95896 11 0 0 0 0 1 0 0 0 0
105	95907 11 0 0 0 0 1 0 0 0 0
106	95918 11 0 0 0 0 1 0 0 0 0
107	95929 11 0 0 0 0 1 0 0 0 0
108	95940 11 0 0 0 0 1 0 0 0 0
109	95951 11 0 0 0 0 1 0 0 0 0
110	95962 11 0 0 0 0 1 0 0 0 0
111	95973 11 0 0 0 0 1 0 0 0 0
112	95984 11 0 0 0 0 1 0 0 0 0
113	95995 11 0 0 0 0 1 0 0 0 0
114	96006 11 0 0 0 0 1 0 0 0 0
115	96017 11 0 0 0 0 1 0 0 0 0
116	96028 11 0 0 0 0 1 0 0 0 0
117	96039 11 0 0 0 0 1 0 0 0 0
118	96050 11 0 0 0 0 1 0 0 0 0
119	96061 11 0 0 0 0 1 0 0 0 0
120	96072 11 0 0 0 0 1 0 0 0 0
121	96083 11 0 0 0 0 1 0 0 0 0
122	96094 11 0 0 0 0 1 0 0 0 0
123	96105 11 0 0 0 0 1 0 0 0 0
124	96116 11 0 0 0 0 1 0 0 0 0
125	96127 11 0 0 0 0 1 0 0 0 0
126	96138 11 0 0 0 0 1 0 0 0 0
127	96149 11 0 0 0 0 1 0 0 0 0
128	96160 11 0 0 0 0 1 0 0 0 0
129	96171 414 36 36 0.1 3 30 0 0 0 0
130	96585 414 36 36 0.1 3 30 0 0 0 0
131	96999 414 36 36 0.1 3 30 0 0 0 0
132	97413 414 36 36 0.1 3 30 0 0 0 0
133	97827 414 36 36 0.1 3 30 0 0 0 0
134	98241 414 36 36 0.1 3 30 0 0 0 0
135	98655 414 36 36 0.1 3 30 0 0 0 0
136	99069 414 36 36 0.1 3 30 0 0 0 0
137	99483 414 36 36 0.1 3 30 0 0 0 0
138	99897 414 36 36 0.1 3 30 0 0 0 0
139	100311 414 36 36 0.1 3 30 0 0 0 0
140	100725 414 36 36 0.1 3 30 0 0 0 0
141	101139 414 36 36 0.1 3 30 0 0 0 0
142	101553 414 36 36 0.1 3 30 0 0 0 0
143	101967 414 36 36 0.1 3 30 0 0 0 0
144	102381 414 36 36 0.1 3 30 0 0 0 0
145	102795 414 36 36 0.1 3 30 0 0 0 0
146	103209 414 36 36 0.1 3 30 0 0 0 0
147	103623 414 36 36 0.1 3 30 0 0 0 0
148	104037 414 36 36 0.1 3 30 0 0 0 0
149	104451 414 36 36 0.1 3 30 0 0 0 0
150	104865 414 36 36 0.1 3 30 0 0 0 0
151	105279 414 36 36 0.1 3 30 0 0 0 0
152	105693 414 36 36 0.1 3 30 0 0 0 0
153	106107 414 36 36 0.1 3 30 0 0 0 0
154	106521 414 36 36 0.1 3 30 0 0 0 0
155	106935 414 36 36 0.1 3 30 0 0 0 0
156	107349 414 36 36 0.1 3 30 0 0 0 0
157	107763 414 36 36 0.1 3 30 0 0 0 0
158	108177 414 36 36 0.1 3 30 0 0 0 0
159	108591 414 36 36 0.1 3 30 0 0 0 0
160	109005 414 36 36 0.1 3 30 0 0 0 0
161	109419 414 36 36 0.1 3 30 0 0 0 0
162	109833 414 36 36 0.1 3 30 0 0 0 0
163	110247 414 36 36 0.1 3 30 0 0 0 0
164	110661 414 36 36 0.1 3 30 0 0 0 0
165	111075 414 36 36 0.1 3 30 0 0 0 0
166	111489 414 36 36 0.1 3 30 0 0 0 0
167	111903 414 36 36 0.1 3 30 0 0 0 0
168	112317 414 36 36 0.1 3 30 0 0 0 0
169	112731 414 36 36 0.1 3 30 0 0 0 0
170	113145 414 36 36 0.1 3 30 0 0 0 0
171	113559 414 36 36 0.1 3 30 0 0 0 0
172	113973 414 36 36 0.1 3 30 0 0 0 0
173	114387 414 36 36 0.1 3 30 0 0 0 0
174	114801 414 36 36 0.1 3 30 0 0 0 0
175	115215 414 36 36 0.1 3 30 0 0 0 0
176	115629 414 36 36 0.1 3 30 0 0 0 0
177	116043 414 36 36 0.1 3 30 0 0 0 0
178	116457 414 36 36 0.1 3 30 0 0 0 0
179	116871 414 36 36 0.1 3 30 0 0 0 0
180	117285 414 36 36 0.1 3 30 0 0 0 0
181	117699 414 36 36 0.1 3 30 0 0 0 0
182	118113 414 36 36 0.1 3 30 0 0 0 0
183	118527 414 36 36 0.1 3 30 0 0 0 0
184	118941 414 36 36 0.1 3 30 0 0 0 0
185	119355 414 36 36 0.1 3 30 0 0 0 0
186	119769 414 36 36 0.1 3 30 0 0 0 0
187	120183 414 36 36 0.1 3 30 0 0 0 0
188	120597 414 36 36 0.1 3 30 0 0 0 0
189	121011 414 36 36 0.1 3 30 0 0 0 0
190	121425 414 36 36 0.1 3 30 0 0 0 0
191	121839 414 36 36 0.1 3 30 0 0 0 0
192	122253 414 36 36 0.1 3 30 0 0 0 0
193	122667 414 36 36 0.1 3 30 0 0 0 0
194	123081 414 36 36 0.1 3 30 0 0 0 0
195	123495 414 36 36 0.1 3 30 0 0 0 0
196	123909 414 36 36 0.1 3 30 0 0 0 0
197	124323 414 36 36 0.1 3 30 0 0 0 0
198	124737 414 36 36 0.1 3 30 0 0 0 0
199	125151 414 36 36 0.1 3 30 0 0 0 0
200	125565 414 36 36 0.1 3 30 0 0 0 0
201	125979 414 36 36 0.1 3 30 0 0 0 0
202	126393 414 36 36 0.1 3 30 0 0 0 0
203	126807 414 36 36 0.1 3 30 0 0 0 0
204	127221 414 36 36 0.1 3 30 0 0 0 0
205	127635 414 36 36 0.1 3 30 0 0 0 0
206	128049 414 36 36 0.1 3 30 0 0 0 0
207	128463 414 36 36 0.1 3 30 0 0 0 0
208	128877 414 36 36 0.1 3 30 0 0 0 0
209	129291 414 36 36 0.1 3 30 0 0 0 0
210	129705 414 36 36 0.1 3 30 0 0 0 0
211	130119 414 36 36 0.1 3 30 0 0 0 0
212	130533 414 36 36 0.1 3 30 0 0 0 0
213	130947 414 36 36 0.1 3 30 0 0 0 0
214	131361 414 36 36 0.1 3 30 0 0 0 0
215	131775 414 36 36 0.1 3 30 0 0 0 0
216	132189 414 36 36 0.1 3 30 0 0 0 0
217	132603 414 36 36 0.1 3 30 0 0 0 0
218	133017 414 36 36 0.1 3 30 0 0 0 0
219	133431 414 36 36 0.1 3 30 0 0 0 0
220	133845 414 36 36 0.1 3 30 0 0 0 0
221	134259 414 36 36 0.1 3 30 0 0 0 0
222	134673 414 36 36 0.1 3 30 0 0 0 0
223	135087 414 36 36 0.1 3 30 0 0 0 0
224	135501 414 36 36 0.1 3 30 0 0 0 0
225	135915 414 36 36 0.1 3 30 0 0 0 0
226	136329 414 36 36 0.1 3 30 0 0 0 0
227	136743 414 36 36 0.1 3 30 0 0 0 0
228	137157 414 36 36 0.1 3 30 0 0 0 0
229	137571 414 36 36 0.1 3 30 0 0 0 0
230	137985 414 36 36 0.1 3 30 0 0 0 0
231	138399 414 36 36 0.1 3 30 0 0 0 0
232	138813 414 36 36 0.1 3 30 0 0 0 0
233	139227 414 36 36 0.1 3 30 0 0 0 0
234	139641 414 36 36 0.1 3 30 0 0 0 0
235	140055 414 36 36 0.1 3 30 0 0 0 0
236	140469 414 36 36 0.1 3 30 0 0 0 0
237	140883 414 36 36 0.1 3 30 0 0 0 0
238	141297 414 36 36 0.1 3 30 0 0 0 0
239	141711 414 36 36 0.1 3 30 0 0 0 0
240	142125 414 36 36 0.1 3 30 0 0 0 0
241	142539 414 36 36 0.1 3 30 0 0 0 0
242	142953 414 36 36 0.1 3 30 0 0 0 0
243	143367 414 36 36 0.1 3 30 0 0 0 0
244	143781 414 36 36 0.1 3 30 0 0 0 0
245	144195 414 36 36 0.1 3 30 0 0 0 0
246	144609 414 36 36 0.1 3 30 0 0 0 0
247	145023 414 36 36 0.1 3 30 0 0 0 0
248	145437 414 36 36 0.1 3 30 0 0 0 0
249	145851 414 36 36 0.1 3 30 0 0 0 0
250	146265 414 36 36 0.1 3 30 0 0 0 0
251	146679 414 36 36 0.1 3 30 0 0 0 0
252	147093 414 36 36 0.1 3 30 0 0 0 0
253	147507 414 36 36 0.1 3 30 0 0 0 0
254	147921 414 36 36 0.1 3 30 0 0 0 0
255	148335 414 36 36 0.1 3 30 0 0 0 0
256	148749 414 36 36 0.1 3 30 0 0 0 0
257	149163 414 36 36 0.1 3 30 0 0 0 0
258	149577 414 36 36 0.1 3 30 0 0 0 0
259	149991 414 36 36 0.1 3 30 0 0 0 0
260	150405 414 36 36 0.1 3 30 0 0 0 0
261	150819 414 36 36 0.1 3 30 0 0 0 0
262	151233 414 36 36 0.1 3 30 0 0 0 0
263	151647 414 36 36 0.1 3 30 0 0 0 0
264	152061 414 36 36 0.1 3 30 0 0 0 0
265	152475 414 36 36 0.1 3 30 0 0 0 0
266	152889 414 36 36 0.1 3 30 0 0 0 0
267	153303 414 36 36 0.1 3 30 0 0 0 0
268	153717 414 36 36 0.1 3 30 0 0 0 0
269	154131 414 36 36 0.1 3 30 0 0 0 0
270	154545 414 36 36 0.1 3 30 0 0 0 0
271	154959 414 36 36 0.1 3 30 0 0 0 0
272	155373 414 36 36 0.1 3 30 0 0 0 0
273	155787 414 36 36 0.1 3 30 0 0 0 0
274	156201 414 36 36 0.1 3 30 0 0 0 0
275	156615 414 36 36 0.1 3 30 0 0 0 0
276	157029 414 36 36 0.1 3 30 0 0 0 0
277	157443 414 36 36 0.1 3 30 0 0 0 0
278	157857 414 36 36 0.1 3 30 0 0 0 0
279	158271 414 36 36 0.1 3 30 0 0 0 0
280	158685 414 36 36 0.1 3 30 0 0 0 0
281	159099 414 36 36 0.1 3 30 0 0 0 0
282	159513 414 36 36 0.1 3 30 0 0 0 0
283	159927 414 36 36 0.1 3 30 0 0 0 0
284	160341 414 36 36 0.1 3 30 0 0 0 0
285	160755 414 36 36 0.1 3 30 0 0 0 0
286	161169 414 36 36 0.1 3 30 0 0 0 0
287	161583 414 36 36 0.1 3 30 0 0 0 0
288	161997 414 36 36 0.1 3 30 0 0 0 0
289	162411 414 36 36 0.1 3 30 0 0 0 0
290	162825 414 36 36 0.1 3 30 0 0 0 0
291	163239 414 36 36 0.1 3 30 0 0 0 0
292	163653 414 36 36 0.1 3 30 0 0 0 0
293	164067 414 36 36 0.1 3 30 0 0 0 0
294	164481 414 36 36 0.1 3 30 0 0 0 0
295	164895 414 36 36 0.1 3 30 0 0 0 0
296	165309 414 36 36 0.1 3 30 0 0 0 0
297	165723 414 36 36 0.1 3 30 0 0 0 0
298	166137 414 36 36 0.1 3 30 0 0 0 0
299	166551 414 36 36 0.1 3 30 0 0 0 0
300	166965 414 36 36 0.1 3 30 0 0 0 0
301	167379 414 36 36 0.1 3 30 0 0 0 0
302	167793 414 36 36 0.1 3 30 0 0 0 0
303	168207 414 36 36 0.1 3 30 0 0 0 0
304	168621 414 36 36 0.1 3 30 0 0 0 0
305	169035 414 36 36 0.1 3 30 0 0 0 0
306	169449 414 36 36 0.1 3 30 0 0 0 0
307	169863 414 36 36 0.1 3 30 0 0 0 0
308	170277 414 36 36 0.1 3 30 0 0 0 0
309	170691 414 36 36 0.1 3 30 0 0 0 0
310	171105 414 36 36 0.1 3 30 0 0 0 0
311	171519 414 36 36 0.1 3 30 0 0 0 0
312	171933 414 36 36 0.1 3 30 0 0 0 0
313	172347 414 36 36 0.1 3 30 0 0 0 0
314	172761 414 36 36 0.1 3 30 0 0 0 0
315	173175 414 36 36 0.1 3 30 0 0 0 0
316	173589 414 36 36 0.1 3 30 0 0 0 0
317	174003 414 36 36 0.1 3 30 0 0 0 0
318	174417 414 36 36 0.1 3 30 0 0 0 0
319	174831 414 36 36 0.1 3 30 0 0 0 0
320	175245 414 36 36 0.1 3 30 0 0 0 0

