version 3
run DebugOTNPath-0-20260124-11:26:00-10992
attr configname DebugOTNPath
attr datetime 20260124-11:26:00
attr datetimef 20260124-112600
attr experiment DebugOTNPath
attr inifile omnetpp.ini
attr iterationvars ""
attr iterationvarsd ""
attr iterationvarsf ""
attr measurement ""
attr network SmartSubstationTopology
attr processid 10992
attr repetition 0
attr replication #0
attr resultdir results
attr runnumber 0
attr seedset 0
config image-path ../inet4.5/images
config network SmartSubstationTopology
config sim-time-limit 3s
config **.verbose true
config **.cmdenv-log-level INFO
config *.stationA_TSN.**.verbose true
config *.stationB_TSN.**.verbose true
config *.borderGateway1.**.verbose true
config *.borderGateway2.**.verbose true
config *.otnDevice.**.verbose true
config *.configurator.typename IPv4NetworkConfigurator
config *.stationA_Protection.numApps 1
config *.stationA_Protection.app[0].typename UdpBasicApp
config *.stationA_Protection.app[0].destAddress "\"stationB_Protection\""
config *.stationA_Protection.app[0].destPort 7001
config *.stationA_Protection.app[0].messageLength 100B
config *.stationA_Protection.app[0].sendInterval 300ms
config *.stationA_Protection.app[0].startTime 0.3s
config *.stationA_Protection.app[0].packetName "\"OTN_Path_Test\""
config *.stationB_Protection.numApps 1
config *.stationB_Protection.app[0].typename UdpSink
config *.stationB_Protection.app[0].localPort 7001
config *.stationA_MU.numApps 0
config *.stationA_IT.numApps 0
config *.stationB_MU.numApps 0
config *.stationB_IT.numApps 0
config *.stationA_Camera*.numApps 0
config *.stationB_Camera*.numApps 0
config *.stationA_VoIP*.numApps 0
config *.stationB_VoIP*.numApps 0
config network SmartSubstationTopology
config sim-time-limit 50s
config cmdenv-express-mode false
config record-eventlog true
config **.udp.verbose true
config **.ipv4.verbose true
config **.arp.verbose true
config *.configurator.typename IPv4NetworkConfigurator
config **.hasIpv4 true
config **.hasUdp true
config **.hasTcp false
config *.stationA_MU.numApps 1
config *.stationA_MU.app[0].typename UdpBasicApp
config *.stationA_MU.app[0].localPort 1000
config *.stationA_MU.app[0].destAddress "\"stationA_Protection\""
config *.stationA_MU.app[0].destPort 2000
config *.stationA_MU.app[0].messageLength 140B
config *.stationA_MU.app[0].sendInterval 250us
config *.stationA_MU.app[0].startTime 0.2s
config *.stationA_MU.app[0].packetName "\"SV_Packet\""
config *.stationA_MU.app[0].dscp 56
config *.stationA_MU.app[0].verbose true
config *.stationA_Protection.numApps 3
config *.stationA_Protection.app[0].typename UdpSink
config *.stationA_Protection.app[0].localPort 2000
config *.stationA_Protection.app[0].verbose true
config *.stationA_Protection.app[1].typename UdpBasicApp
config *.stationA_Protection.app[1].localPort 2001
config *.stationA_Protection.app[1].destAddress "\"stationA_IT\""
config *.stationA_Protection.app[1].destPort 3000
config *.stationA_Protection.app[1].messageLength 120B
config *.stationA_Protection.app[1].sendInterval exponential(2s)
config *.stationA_Protection.app[1].startTime 0.8s
config *.stationA_Protection.app[1].packetName "\"GOOSE_Packet\""
config *.stationA_Protection.app[1].dscp 48
config *.stationA_Protection.app[1].verbose true
config *.stationA_IT.numApps 1
config *.stationA_IT.app[0].typename UdpSink
config *.stationA_IT.app[0].localPort 3000
config *.stationA_IT.app[0].verbose true
config *.stationA_Protection.app[2].typename UdpBasicApp
config *.stationA_Protection.app[2].localPort 2002
config *.stationA_Protection.app[2].destAddress "\"stationB_Protection\""
config *.stationA_Protection.app[2].destPort 4000
config *.stationA_Protection.app[2].messageLength 100B
config *.stationA_Protection.app[2].sendInterval 1.5s
config *.stationA_Protection.app[2].startTime 1.2s
config *.stationA_Protection.app[2].packetName "\"CrossStation_Packet\""
config *.stationA_Protection.app[2].verbose true
config *.stationB_Protection.numApps 1
config *.stationB_Protection.app[0].typename UdpSink
config *.stationB_Protection.app[0].localPort 4000
config *.stationB_Protection.app[0].verbose true
config *.stationA_BusProtection.numApps 1
config *.stationA_BusProtection.app[0].typename UdpSink
config *.stationA_BusProtection.app[0].localPort 5000
config *.stationA_BusProtection.app[0].verbose true
config *.stationA_BusProtection_MU1.numApps 1
config *.stationA_BusProtection_MU1.app[0].typename UdpBasicApp
config *.stationA_BusProtection_MU1.app[0].localPort 5101
config *.stationA_BusProtection_MU1.app[0].destAddress "\"stationA_BusProtection\""
config *.stationA_BusProtection_MU1.app[0].destPort 5000
config *.stationA_BusProtection_MU1.app[0].messageLength 140B
config *.stationA_BusProtection_MU1.app[0].sendInterval 250us
config *.stationA_BusProtection_MU1.app[0].startTime 0.3s
config *.stationA_BusProtection_MU1.app[0].packetName "\"Bus_SV_1\""
config *.stationA_BusProtection_MU1.app[0].dscp 56
config *.stationA_BusProtection_MU1.app[0].verbose true
config *.stationA_BusProtection_MU2.numApps 1
config *.stationA_BusProtection_MU2.app[0].typename UdpBasicApp
config *.stationA_BusProtection_MU2.app[0].localPort 5102
config *.stationA_BusProtection_MU2.app[0].destAddress "\"stationA_BusProtection\""
config *.stationA_BusProtection_MU2.app[0].destPort 5000
config *.stationA_BusProtection_MU2.app[0].messageLength 140B
config *.stationA_BusProtection_MU2.app[0].sendInterval 250us
config *.stationA_BusProtection_MU2.app[0].startTime 0.4s
config *.stationA_BusProtection_MU2.app[0].packetName "\"Bus_SV_2\""
config *.stationA_BusProtection_MU2.app[0].dscp 56
config *.stationA_BusProtection_MU2.app[0].verbose true
config *.stationA_BusProtection_MU3.numApps 1
config *.stationA_BusProtection_MU3.app[0].typename UdpBasicApp
config *.stationA_BusProtection_MU3.app[0].localPort 5103
config *.stationA_BusProtection_MU3.app[0].destAddress "\"stationA_BusProtection\""
config *.stationA_BusProtection_MU3.app[0].destPort 5000
config *.stationA_BusProtection_MU3.app[0].messageLength 140B
config *.stationA_BusProtection_MU3.app[0].sendInterval 250us
config *.stationA_BusProtection_MU3.app[0].startTime 0.5s
config *.stationA_BusProtection_MU3.app[0].packetName "\"Bus_SV_3\""
config *.stationA_BusProtection_MU3.app[0].dscp 56
config *.stationA_BusProtection_MU3.app[0].verbose true
config *.stationB_BusProtection.numApps 1
config *.stationB_BusProtection.app[0].typename UdpSink
config *.stationB_BusProtection.app[0].localPort 5000
config *.stationB_BusProtection.app[0].verbose true
config *.stationB_BusProtection_MU1.numApps 1
config *.stationB_BusProtection_MU1.app[0].typename UdpBasicApp
config *.stationB_BusProtection_MU1.app[0].localPort 5101
config *.stationB_BusProtection_MU1.app[0].destAddress "\"stationB_BusProtection\""
config *.stationB_BusProtection_MU1.app[0].destPort 5000
config *.stationB_BusProtection_MU1.app[0].messageLength 140B
config *.stationB_BusProtection_MU1.app[0].sendInterval 250us
config *.stationB_BusProtection_MU1.app[0].startTime 0.3s
config *.stationB_BusProtection_MU1.app[0].packetName "\"Bus_SV_1\""
config *.stationB_BusProtection_MU1.app[0].dscp 56
config *.stationB_BusProtection_MU1.app[0].verbose true
config *.stationB_BusProtection_MU2.numApps 1
config *.stationB_BusProtection_MU2.app[0].typename UdpBasicApp
config *.stationB_BusProtection_MU2.app[0].localPort 5102
config *.stationB_BusProtection_MU2.app[0].destAddress "\"stationB_BusProtection\""
config *.stationB_BusProtection_MU2.app[0].destPort 5000
config *.stationB_BusProtection_MU2.app[0].messageLength 140B
config *.stationB_BusProtection_MU2.app[0].sendInterval 250us
config *.stationB_BusProtection_MU2.app[0].startTime 0.4s
config *.stationB_BusProtection_MU2.app[0].packetName "\"Bus_SV_2\""
config *.stationB_BusProtection_MU2.app[0].dscp 56
config *.stationB_BusProtection_MU2.app[0].verbose true
config *.stationB_BusProtection_MU3.numApps 1
config *.stationB_BusProtection_MU3.app[0].typename UdpBasicApp
config *.stationB_BusProtection_MU3.app[0].localPort 5103
config *.stationB_BusProtection_MU3.app[0].destAddress "\"stationB_BusProtection\""
config *.stationB_BusProtection_MU3.app[0].destPort 5000
config *.stationB_BusProtection_MU3.app[0].messageLength 140B
config *.stationB_BusProtection_MU3.app[0].sendInterval 250us
config *.stationB_BusProtection_MU3.app[0].startTime 0.5s
config *.stationB_BusProtection_MU3.app[0].packetName "\"Bus_SV_3\""
config *.stationB_BusProtection_MU3.app[0].dscp 56
config *.stationB_BusProtection_MU3.app[0].verbose true
config *.stationA_Camera*.numApps 1
config *.stationA_Camera*.app[0].typename UdpBasicApp
config *.stationA_Camera*.app[0].destAddress "\"stationA_OMServer\""
config *.stationA_Camera*.app[0].destPort 6000
config *.stationA_Camera*.app[0].messageLength 10MB
config *.stationA_Camera*.app[0].sendInterval 33.33ms
config *.stationA_Camera*.app[0].startTime "uniform(0.5s, 1s)"
config *.stationA_Camera*.app[0].packetName "\"Video_Stream\""
config *.stationA_Camera*.app[0].dscp 0
config *.stationA_Camera*.app[0].verbose true
config *.stationB_Camera*.numApps 1
config *.stationB_Camera*.app[0].typename UdpBasicApp
config *.stationB_Camera*.app[0].destAddress "\"stationB_OMServer\""
config *.stationB_Camera*.app[0].destPort 6000
config *.stationB_Camera*.app[0].messageLength 10MB
config *.stationB_Camera*.app[0].sendInterval 33.33ms
config *.stationB_Camera*.app[0].startTime "uniform(0.5s, 1s)"
config *.stationB_Camera*.app[0].packetName "\"Video_Stream\""
config *.stationB_Camera*.app[0].dscp 0
config *.stationB_Camera*.app[0].verbose true
config *.stationA_OMServer.numApps 1
config *.stationA_OMServer.app[0].typename UdpSink
config *.stationA_OMServer.app[0].localPort 6000
config *.stationA_OMServer.app[0].verbose true
config *.stationB_OMServer.numApps 1
config *.stationB_OMServer.app[0].typename UdpSink
config *.stationB_OMServer.app[0].localPort 6000
config *.stationB_OMServer.app[0].verbose true
config *.stationA_VoIP1.numApps 1
config *.stationA_VoIP1.app[0].typename UdpBasicApp
config *.stationA_VoIP1.app[0].localPort 7001
config *.stationA_VoIP1.app[0].destAddress "\"stationB_VoIP1\""
config *.stationA_VoIP1.app[0].destPort 8001
config *.stationA_VoIP1.app[0].messageLength 200B
config *.stationA_VoIP1.app[0].sendInterval 20ms
config *.stationA_VoIP1.app[0].startTime 0.6s
config *.stationA_VoIP1.app[0].packetName "\"VoIP_Stream\""
config *.stationA_VoIP1.app[0].dscp 40
config *.stationA_VoIP1.app[0].verbose true
config *.stationA_VoIP2.numApps 1
config *.stationA_VoIP2.app[0].typename UdpBasicApp
config *.stationA_VoIP2.app[0].localPort 7002
config *.stationA_VoIP2.app[0].destAddress "\"stationB_VoIP2\""
config *.stationA_VoIP2.app[0].destPort 8002
config *.stationA_VoIP2.app[0].messageLength 200B
config *.stationA_VoIP2.app[0].sendInterval 20ms
config *.stationA_VoIP2.app[0].startTime 0.7s
config *.stationA_VoIP2.app[0].packetName "\"VoIP_Stream\""
config *.stationA_VoIP2.app[0].dscp 40
config *.stationA_VoIP2.app[0].verbose true
config *.stationB_VoIP1.numApps 1
config *.stationB_VoIP1.app[0].typename UdpSink
config *.stationB_VoIP1.app[0].localPort 8001
config *.stationB_VoIP1.app[0].verbose true
config *.stationB_VoIP2.numApps 1
config *.stationB_VoIP2.app[0].typename UdpSink
config *.stationB_VoIP2.app[0].localPort 8002
config *.stationB_VoIP2.app[0].verbose true
config *.stationB_VoIP1.numApps 2
config *.stationB_VoIP1.app[1].typename UdpBasicApp
config *.stationB_VoIP1.app[1].localPort 8003
config *.stationB_VoIP1.app[1].destAddress "\"stationA_VoIP1\""
config *.stationB_VoIP1.app[1].destPort 7003
config *.stationB_VoIP1.app[1].messageLength 200B
config *.stationB_VoIP1.app[1].sendInterval 20ms
config *.stationB_VoIP1.app[1].startTime 0.8s
config *.stationB_VoIP1.app[1].packetName "\"VoIP_Stream_Reply\""
config *.stationB_VoIP1.app[1].dscp 40
config *.stationB_VoIP1.app[1].verbose true
config *.stationB_VoIP2.numApps 2
config *.stationB_VoIP2.app[1].typename UdpBasicApp
config *.stationB_VoIP2.app[1].localPort 8004
config *.stationB_VoIP2.app[1].destAddress "\"stationA_VoIP2\""
config *.stationB_VoIP2.app[1].destPort 7004
config *.stationB_VoIP2.app[1].messageLength 200B
config *.stationB_VoIP2.app[1].sendInterval 20ms
config *.stationB_VoIP2.app[1].startTime 0.9s
config *.stationB_VoIP2.app[1].packetName "\"VoIP_Stream_Reply\""
config *.stationB_VoIP2.app[1].dscp 40
config *.stationB_VoIP2.app[1].verbose true
config *.stationA_VoIP1.numApps 2
config *.stationA_VoIP1.app[1].typename UdpSink
config *.stationA_VoIP1.app[1].localPort 7003
config *.stationA_VoIP1.app[1].verbose true
config *.stationA_VoIP2.numApps 2
config *.stationA_VoIP2.app[1].typename UdpSink
config *.stationA_VoIP2.app[1].localPort 7004
config *.stationA_VoIP2.app[1].verbose true
config *.stationA_OMServer.numApps 2
config *.stationA_OMServer.app[1].typename UdpBasicApp
config *.stationA_OMServer.app[1].localPort 9001
config *.stationA_OMServer.app[1].destAddress "\"stationB_OMServer\""
config *.stationA_OMServer.app[1].destPort 9002
config *.stationA_OMServer.app[1].messageLength "normal(1500B, 500B)"
config *.stationA_OMServer.app[1].sendInterval exponential(0.1s)
config *.stationA_OMServer.app[1].startTime 1s
config *.stationA_OMServer.app[1].packetName "\"OM_Data_Burst\""
config *.stationA_OMServer.app[1].dscp 0
config *.stationA_OMServer.app[1].verbose true
config *.stationB_OMServer.numApps 2
config *.stationB_OMServer.app[1].typename UdpSink
config *.stationB_OMServer.app[1].localPort 9002
config *.stationB_OMServer.app[1].verbose true
config *.stationB_OMServer.numApps 3
config *.stationB_OMServer.app[2].typename UdpBasicApp
config *.stationB_OMServer.app[2].localPort 9003
config *.stationB_OMServer.app[2].destAddress "\"stationA_OMServer\""
config *.stationB_OMServer.app[2].destPort 9004
config *.stationB_OMServer.app[2].messageLength "normal(1500B, 500B)"
config *.stationB_OMServer.app[2].sendInterval exponential(0.1s)
config *.stationB_OMServer.app[2].startTime 1.2s
config *.stationB_OMServer.app[2].packetName "\"OM_Data_Burst_Reply\""
config *.stationB_OMServer.app[2].dscp 0
config *.stationB_OMServer.app[2].verbose true
config *.stationA_OMServer.numApps 3
config *.stationA_OMServer.app[2].typename UdpSink
config *.stationA_OMServer.app[2].localPort 9004
config *.stationA_OMServer.app[2].verbose true
config **.app[*].source.packetSentSignal true
config **.app[*].sink.packetReceivedSignal true
config **.app[*].sink.endToEndDelayStatistic.record true
config **.app[*].sink.delayHistogram.record true
config **.app[*].sink.numReceivedStatistic.record true
config **.app[*].sink.throughputStatistic.record true
config **.app[*].sink.jitterStatistic.record true
config **.app[*].sink.jitterHistogram.record true
config *.stationA_VoIP*.app[*].sink.delayThreshold 150ms
config *.stationA_VoIP*.app[*].sink.jitterThreshold 30ms
config *.stationB_VoIP*.app[*].sink.delayThreshold 150ms
config *.stationB_VoIP*.app[*].sink.jitterThreshold 30ms
config *.stationA_MU.app[0].sink.delayThreshold 30ms
config *.stationA_MU.app[0].sink.jitterThreshold 250us
config *.stationA_BusProtection_MU*.app[*].sink.delayThreshold 30ms
config *.stationA_BusProtection_MU*.app[*].sink.jitterThreshold 250us
config *.stationA_*.displayString "\"i=abstract/pc\""
config *.stationB_*.displayString "\"i=abstract/pc\""
config *.borderGateway*.displayString "\"i=misc/router\""
config *.otnDevice.displayString "\"i=misc/router_vs\""
config *.stationA_MU.displayString "\"i=block/switch,green\""
config *.stationA_Protection.displayString "\"i=block/computer,red\""
config *.stationA_IT.displayString "\"i=block/plug,blue\""
config *.stationB_Protection.displayString "\"i=block/computer,red\""
config *.stationA_BusProtection.displayString "\"i=block/computer,orange\""
config *.stationB_BusProtection.displayString "\"i=block/computer,orange\""
config *.stationA_BusProtection_MU*.displayString "\"i=block/switch,yellow\""
config *.stationB_BusProtection_MU*.displayString "\"i=block/switch,yellow\""
config *.stationA_Camera*.displayString "\"i=device/camera,gray\""
config *.stationB_Camera*.displayString "\"i=device/camera,gray\""
config *.stationA_VoIP*.displayString "\"i=device/iphone,gray\""
config *.stationB_VoIP*.displayString "\"i=device/iphone,gray\""
config *.stationA_OMServer.displayString "\"i=block/server,gray\""
config *.stationB_OMServer.displayString "\"i=block/server,gray\""
config **.channel.displayString "\"ls=black,1\""

vector 0 SmartSubstationTopology.stationA_MU.udp passedUpPk:vector(count) ETV
attr interpolationmode none
attr recordingmode vector(count)
attr source packetSentToUpper
attr title "packets passed up, count"
vector 1 SmartSubstationTopology.stationA_MU.udp droppedPkWrongPort:vector(count) ETV
attr interpolationmode none
attr recordingmode vector(count)
attr source packetDropReasonIsNoPortFound(packetDropped)
attr title "packets dropped (wrong port), count"
vector 2 SmartSubstationTopology.stationA_MU.udp droppedPkBadChecksum:vector(count) ETV
attr interpolationmode none
attr recordingmode vector(count)
attr source packetDropReasonIsIncorrectlyReceived(packetDropped)
attr title "packets dropped (checksum error), count"
vector 3 SmartSubstationTopology.stationA_Protection.udp passedUpPk:vector(count) ETV
attr interpolationmode none
attr recordingmode vector(count)
attr source packetSentToUpper
attr title "packets passed up, count"
vector 4 SmartSubstationTopology.stationA_Protection.udp droppedPkWrongPort:vector(count) ETV
attr interpolationmode none
attr recordingmode vector(count)
attr source packetDropReasonIsNoPortFound(packetDropped)
attr title "packets dropped (wrong port), count"
vector 5 SmartSubstationTopology.stationA_Protection.udp droppedPkBadChecksum:vector(count) ETV
attr interpolationmode none
attr recordingmode vector(count)
attr source packetDropReasonIsIncorrectlyReceived(packetDropped)
attr title "packets dropped (checksum error), count"
vector 6 SmartSubstationTopology.stationA_IT.udp passedUpPk:vector(count) ETV
attr interpolationmode none
attr recordingmode vector(count)
attr source packetSentToUpper
attr title "packets passed up, count"
vector 7 SmartSubstationTopology.stationA_IT.udp droppedPkWrongPort:vector(count) ETV
attr interpolationmode none
attr recordingmode vector(count)
attr source packetDropReasonIsNoPortFound(packetDropped)
attr title "packets dropped (wrong port), count"
vector 8 SmartSubstationTopology.stationA_IT.udp droppedPkBadChecksum:vector(count) ETV
attr interpolationmode none
attr recordingmode vector(count)
attr source packetDropReasonIsIncorrectlyReceived(packetDropped)
attr title "packets dropped (checksum error), count"
vector 9 SmartSubstationTopology.stationA_BusProtection_MU1.udp passedUpPk:vector(count) ETV
attr interpolationmode none
attr recordingmode vector(count)
attr source packetSentToUpper
attr title "packets passed up, count"
vector 10 SmartSubstationTopology.stationA_BusProtection_MU1.udp droppedPkWrongPort:vector(count) ETV
attr interpolationmode none
attr recordingmode vector(count)
attr source packetDropReasonIsNoPortFound(packetDropped)
attr title "packets dropped (wrong port), count"
vector 11 SmartSubstationTopology.stationA_BusProtection_MU1.udp droppedPkBadChecksum:vector(count) ETV
attr interpolationmode none
attr recordingmode vector(count)
attr source packetDropReasonIsIncorrectlyReceived(packetDropped)
attr title "packets dropped (checksum error), count"
vector 12 SmartSubstationTopology.stationA_BusProtection_MU2.udp passedUpPk:vector(count) ETV
attr interpolationmode none
attr recordingmode vector(count)
attr source packetSentToUpper
attr title "packets passed up, count"
vector 13 SmartSubstationTopology.stationA_BusProtection_MU2.udp droppedPkWrongPort:vector(count) ETV
attr interpolationmode none
attr recordingmode vector(count)
attr source packetDropReasonIsNoPortFound(packetDropped)
attr title "packets dropped (wrong port), count"
vector 14 SmartSubstationTopology.stationA_BusProtection_MU2.udp droppedPkBadChecksum:vector(count) ETV
attr interpolationmode none
attr recordingmode vector(count)
attr source packetDropReasonIsIncorrectlyReceived(packetDropped)
attr title "packets dropped (checksum error), count"
vector 15 SmartSubstationTopology.stationA_BusProtection_MU3.udp passedUpPk:vector(count) ETV
attr interpolationmode none
attr recordingmode vector(count)
attr source packetSentToUpper
attr title "packets passed up, count"
vector 16 SmartSubstationTopology.stationA_BusProtection_MU3.udp droppedPkWrongPort:vector(count) ETV
attr interpolationmode none
attr recordingmode vector(count)
attr source packetDropReasonIsNoPortFound(packetDropped)
attr title "packets dropped (wrong port), count"
vector 17 SmartSubstationTopology.stationA_BusProtection_MU3.udp droppedPkBadChecksum:vector(count) ETV
attr interpolationmode none
attr recordingmode vector(count)
attr source packetDropReasonIsIncorrectlyReceived(packetDropped)
attr title "packets dropped (checksum error), count"
vector 18 SmartSubstationTopology.stationA_BusProtection.udp passedUpPk:vector(count) ETV
attr interpolationmode none
attr recordingmode vector(count)
attr source packetSentToUpper
attr title "packets passed up, count"
vector 19 SmartSubstationTopology.stationA_BusProtection.udp droppedPkWrongPort:vector(count) ETV
attr interpolationmode none
attr recordingmode vector(count)
attr source packetDropReasonIsNoPortFound(packetDropped)
attr title "packets dropped (wrong port), count"
vector 20 SmartSubstationTopology.stationA_BusProtection.udp droppedPkBadChecksum:vector(count) ETV
attr interpolationmode none
attr recordingmode vector(count)
attr source packetDropReasonIsIncorrectlyReceived(packetDropped)
attr title "packets dropped (checksum error), count"
vector 21 SmartSubstationTopology.stationA_Camera1.udp passedUpPk:vector(count) ETV
attr interpolationmode none
attr recordingmode vector(count)
attr source packetSentToUpper
attr title "packets passed up, count"
vector 22 SmartSubstationTopology.stationA_Camera1.udp droppedPkWrongPort:vector(count) ETV
attr interpolationmode none
attr recordingmode vector(count)
attr source packetDropReasonIsNoPortFound(packetDropped)
attr title "packets dropped (wrong port), count"
vector 23 SmartSubstationTopology.stationA_Camera1.udp droppedPkBadChecksum:vector(count) ETV
attr interpolationmode none
attr recordingmode vector(count)
attr source packetDropReasonIsIncorrectlyReceived(packetDropped)
attr title "packets dropped (checksum error), count"
vector 24 SmartSubstationTopology.stationA_Camera2.udp passedUpPk:vector(count) ETV
attr interpolationmode none
attr recordingmode vector(count)
attr source packetSentToUpper
attr title "packets passed up, count"
vector 25 SmartSubstationTopology.stationA_Camera2.udp droppedPkWrongPort:vector(count) ETV
attr interpolationmode none
attr recordingmode vector(count)
attr source packetDropReasonIsNoPortFound(packetDropped)
attr title "packets dropped (wrong port), count"
vector 26 SmartSubstationTopology.stationA_Camera2.udp droppedPkBadChecksum:vector(count) ETV
attr interpolationmode none
attr recordingmode vector(count)
attr source packetDropReasonIsIncorrectlyReceived(packetDropped)
attr title "packets dropped (checksum error), count"
vector 27 SmartSubstationTopology.stationA_Camera3.udp passedUpPk:vector(count) ETV
attr interpolationmode none
attr recordingmode vector(count)
attr source packetSentToUpper
attr title "packets passed up, count"
vector 28 SmartSubstationTopology.stationA_Camera3.udp droppedPkWrongPort:vector(count) ETV
attr interpolationmode none
attr recordingmode vector(count)
attr source packetDropReasonIsNoPortFound(packetDropped)
attr title "packets dropped (wrong port), count"
vector 29 SmartSubstationTopology.stationA_Camera3.udp droppedPkBadChecksum:vector(count) ETV
attr interpolationmode none
attr recordingmode vector(count)
attr source packetDropReasonIsIncorrectlyReceived(packetDropped)
attr title "packets dropped (checksum error), count"
vector 30 SmartSubstationTopology.stationA_Camera4.udp passedUpPk:vector(count) ETV
attr interpolationmode none
attr recordingmode vector(count)
attr source packetSentToUpper
attr title "packets passed up, count"
vector 31 SmartSubstationTopology.stationA_Camera4.udp droppedPkWrongPort:vector(count) ETV
attr interpolationmode none
attr recordingmode vector(count)
attr source packetDropReasonIsNoPortFound(packetDropped)
attr title "packets dropped (wrong port), count"
vector 32 SmartSubstationTopology.stationA_Camera4.udp droppedPkBadChecksum:vector(count) ETV
attr interpolationmode none
attr recordingmode vector(count)
attr source packetDropReasonIsIncorrectlyReceived(packetDropped)
attr title "packets dropped (checksum error), count"
vector 33 SmartSubstationTopology.stationA_Camera5.udp passedUpPk:vector(count) ETV
attr interpolationmode none
attr recordingmode vector(count)
attr source packetSentToUpper
attr title "packets passed up, count"
vector 34 SmartSubstationTopology.stationA_Camera5.udp droppedPkWrongPort:vector(count) ETV
attr interpolationmode none
attr recordingmode vector(count)
attr source packetDropReasonIsNoPortFound(packetDropped)
attr title "packets dropped (wrong port), count"
vector 35 SmartSubstationTopology.stationA_Camera5.udp droppedPkBadChecksum:vector(count) ETV
attr interpolationmode none
attr recordingmode vector(count)
attr source packetDropReasonIsIncorrectlyReceived(packetDropped)
attr title "packets dropped (checksum error), count"
vector 36 SmartSubstationTopology.stationA_Camera6.udp passedUpPk:vector(count) ETV
attr interpolationmode none
attr recordingmode vector(count)
attr source packetSentToUpper
attr title "packets passed up, count"
vector 37 SmartSubstationTopology.stationA_Camera6.udp droppedPkWrongPort:vector(count) ETV
attr interpolationmode none
attr recordingmode vector(count)
attr source packetDropReasonIsNoPortFound(packetDropped)
attr title "packets dropped (wrong port), count"
vector 38 SmartSubstationTopology.stationA_Camera6.udp droppedPkBadChecksum:vector(count) ETV
attr interpolationmode none
attr recordingmode vector(count)
attr source packetDropReasonIsIncorrectlyReceived(packetDropped)
attr title "packets dropped (checksum error), count"
vector 39 SmartSubstationTopology.stationA_Camera7.udp passedUpPk:vector(count) ETV
attr interpolationmode none
attr recordingmode vector(count)
attr source packetSentToUpper
attr title "packets passed up, count"
vector 40 SmartSubstationTopology.stationA_Camera7.udp droppedPkWrongPort:vector(count) ETV
attr interpolationmode none
attr recordingmode vector(count)
attr source packetDropReasonIsNoPortFound(packetDropped)
attr title "packets dropped (wrong port), count"
vector 41 SmartSubstationTopology.stationA_Camera7.udp droppedPkBadChecksum:vector(count) ETV
attr interpolationmode none
attr recordingmode vector(count)
attr source packetDropReasonIsIncorrectlyReceived(packetDropped)
attr title "packets dropped (checksum error), count"
vector 42 SmartSubstationTopology.stationA_Camera8.udp passedUpPk:vector(count) ETV
attr interpolationmode none
attr recordingmode vector(count)
attr source packetSentToUpper
attr title "packets passed up, count"
vector 43 SmartSubstationTopology.stationA_Camera8.udp droppedPkWrongPort:vector(count) ETV
attr interpolationmode none
attr recordingmode vector(count)
attr source packetDropReasonIsNoPortFound(packetDropped)
attr title "packets dropped (wrong port), count"
vector 44 SmartSubstationTopology.stationA_Camera8.udp droppedPkBadChecksum:vector(count) ETV
attr interpolationmode none
attr recordingmode vector(count)
attr source packetDropReasonIsIncorrectlyReceived(packetDropped)
attr title "packets dropped (checksum error), count"
vector 45 SmartSubstationTopology.stationA_Camera9.udp passedUpPk:vector(count) ETV
attr interpolationmode none
attr recordingmode vector(count)
attr source packetSentToUpper
attr title "packets passed up, count"
vector 46 SmartSubstationTopology.stationA_Camera9.udp droppedPkWrongPort:vector(count) ETV
attr interpolationmode none
attr recordingmode vector(count)
attr source packetDropReasonIsNoPortFound(packetDropped)
attr title "packets dropped (wrong port), count"
vector 47 SmartSubstationTopology.stationA_Camera9.udp droppedPkBadChecksum:vector(count) ETV
attr interpolationmode none
attr recordingmode vector(count)
attr source packetDropReasonIsIncorrectlyReceived(packetDropped)
attr title "packets dropped (checksum error), count"
vector 48 SmartSubstationTopology.stationA_Camera10.udp passedUpPk:vector(count) ETV
attr interpolationmode none
attr recordingmode vector(count)
attr source packetSentToUpper
attr title "packets passed up, count"
vector 49 SmartSubstationTopology.stationA_Camera10.udp droppedPkWrongPort:vector(count) ETV
attr interpolationmode none
attr recordingmode vector(count)
attr source packetDropReasonIsNoPortFound(packetDropped)
attr title "packets dropped (wrong port), count"
vector 50 SmartSubstationTopology.stationA_Camera10.udp droppedPkBadChecksum:vector(count) ETV
attr interpolationmode none
attr recordingmode vector(count)
attr source packetDropReasonIsIncorrectlyReceived(packetDropped)
attr title "packets dropped (checksum error), count"
vector 51 SmartSubstationTopology.stationA_VoIP1.udp passedUpPk:vector(count) ETV
attr interpolationmode none
attr recordingmode vector(count)
attr source packetSentToUpper
attr title "packets passed up, count"
vector 52 SmartSubstationTopology.stationA_VoIP1.udp droppedPkWrongPort:vector(count) ETV
attr interpolationmode none
attr recordingmode vector(count)
attr source packetDropReasonIsNoPortFound(packetDropped)
attr title "packets dropped (wrong port), count"
vector 53 SmartSubstationTopology.stationA_VoIP1.udp droppedPkBadChecksum:vector(count) ETV
attr interpolationmode none
attr recordingmode vector(count)
attr source packetDropReasonIsIncorrectlyReceived(packetDropped)
attr title "packets dropped (checksum error), count"
vector 54 SmartSubstationTopology.stationA_VoIP2.udp passedUpPk:vector(count) ETV
attr interpolationmode none
attr recordingmode vector(count)
attr source packetSentToUpper
attr title "packets passed up, count"
vector 55 SmartSubstationTopology.stationA_VoIP2.udp droppedPkWrongPort:vector(count) ETV
attr interpolationmode none
attr recordingmode vector(count)
attr source packetDropReasonIsNoPortFound(packetDropped)
attr title "packets dropped (wrong port), count"
vector 56 SmartSubstationTopology.stationA_VoIP2.udp droppedPkBadChecksum:vector(count) ETV
attr interpolationmode none
attr recordingmode vector(count)
attr source packetDropReasonIsIncorrectlyReceived(packetDropped)
attr title "packets dropped (checksum error), count"
vector 57 SmartSubstationTopology.stationA_OMServer.udp passedUpPk:vector(count) ETV
attr interpolationmode none
attr recordingmode vector(count)
attr source packetSentToUpper
attr title "packets passed up, count"
vector 58 SmartSubstationTopology.stationA_OMServer.udp droppedPkWrongPort:vector(count) ETV
attr interpolationmode none
attr recordingmode vector(count)
attr source packetDropReasonIsNoPortFound(packetDropped)
attr title "packets dropped (wrong port), count"
vector 59 SmartSubstationTopology.stationA_OMServer.udp droppedPkBadChecksum:vector(count) ETV
attr interpolationmode none
attr recordingmode vector(count)
attr source packetDropReasonIsIncorrectlyReceived(packetDropped)
attr title "packets dropped (checksum error), count"
vector 60 SmartSubstationTopology.stationB_MU.udp passedUpPk:vector(count) ETV
attr interpolationmode none
attr recordingmode vector(count)
attr source packetSentToUpper
attr title "packets passed up, count"
vector 61 SmartSubstationTopology.stationB_MU.udp droppedPkWrongPort:vector(count) ETV
attr interpolationmode none
attr recordingmode vector(count)
attr source packetDropReasonIsNoPortFound(packetDropped)
attr title "packets dropped (wrong port), count"
vector 62 SmartSubstationTopology.stationB_MU.udp droppedPkBadChecksum:vector(count) ETV
attr interpolationmode none
attr recordingmode vector(count)
attr source packetDropReasonIsIncorrectlyReceived(packetDropped)
attr title "packets dropped (checksum error), count"
vector 63 SmartSubstationTopology.stationB_Protection.udp passedUpPk:vector(count) ETV
attr interpolationmode none
attr recordingmode vector(count)
attr source packetSentToUpper
attr title "packets passed up, count"
vector 64 SmartSubstationTopology.stationB_Protection.udp droppedPkWrongPort:vector(count) ETV
attr interpolationmode none
attr recordingmode vector(count)
attr source packetDropReasonIsNoPortFound(packetDropped)
attr title "packets dropped (wrong port), count"
vector 65 SmartSubstationTopology.stationB_Protection.udp droppedPkBadChecksum:vector(count) ETV
attr interpolationmode none
attr recordingmode vector(count)
attr source packetDropReasonIsIncorrectlyReceived(packetDropped)
attr title "packets dropped (checksum error), count"
vector 66 SmartSubstationTopology.stationB_IT.udp passedUpPk:vector(count) ETV
attr interpolationmode none
attr recordingmode vector(count)
attr source packetSentToUpper
attr title "packets passed up, count"
vector 67 SmartSubstationTopology.stationB_IT.udp droppedPkWrongPort:vector(count) ETV
attr interpolationmode none
attr recordingmode vector(count)
attr source packetDropReasonIsNoPortFound(packetDropped)
attr title "packets dropped (wrong port), count"
vector 68 SmartSubstationTopology.stationB_IT.udp droppedPkBadChecksum:vector(count) ETV
attr interpolationmode none
attr recordingmode vector(count)
attr source packetDropReasonIsIncorrectlyReceived(packetDropped)
attr title "packets dropped (checksum error), count"
vector 69 SmartSubstationTopology.stationB_BusProtection_MU1.udp passedUpPk:vector(count) ETV
attr interpolationmode none
attr recordingmode vector(count)
attr source packetSentToUpper
attr title "packets passed up, count"
vector 70 SmartSubstationTopology.stationB_BusProtection_MU1.udp droppedPkWrongPort:vector(count) ETV
attr interpolationmode none
attr recordingmode vector(count)
attr source packetDropReasonIsNoPortFound(packetDropped)
attr title "packets dropped (wrong port), count"
vector 71 SmartSubstationTopology.stationB_BusProtection_MU1.udp droppedPkBadChecksum:vector(count) ETV
attr interpolationmode none
attr recordingmode vector(count)
attr source packetDropReasonIsIncorrectlyReceived(packetDropped)
attr title "packets dropped (checksum error), count"
vector 72 SmartSubstationTopology.stationB_BusProtection_MU2.udp passedUpPk:vector(count) ETV
attr interpolationmode none
attr recordingmode vector(count)
attr source packetSentToUpper
attr title "packets passed up, count"
vector 73 SmartSubstationTopology.stationB_BusProtection_MU2.udp droppedPkWrongPort:vector(count) ETV
attr interpolationmode none
attr recordingmode vector(count)
attr source packetDropReasonIsNoPortFound(packetDropped)
attr title "packets dropped (wrong port), count"
vector 74 SmartSubstationTopology.stationB_BusProtection_MU2.udp droppedPkBadChecksum:vector(count) ETV
attr interpolationmode none
attr recordingmode vector(count)
attr source packetDropReasonIsIncorrectlyReceived(packetDropped)
attr title "packets dropped (checksum error), count"
vector 75 SmartSubstationTopology.stationB_BusProtection_MU3.udp passedUpPk:vector(count) ETV
attr interpolationmode none
attr recordingmode vector(count)
attr source packetSentToUpper
attr title "packets passed up, count"
vector 76 SmartSubstationTopology.stationB_BusProtection_MU3.udp droppedPkWrongPort:vector(count) ETV
attr interpolationmode none
attr recordingmode vector(count)
attr source packetDropReasonIsNoPortFound(packetDropped)
attr title "packets dropped (wrong port), count"
vector 77 SmartSubstationTopology.stationB_BusProtection_MU3.udp droppedPkBadChecksum:vector(count) ETV
attr interpolationmode none
attr recordingmode vector(count)
attr source packetDropReasonIsIncorrectlyReceived(packetDropped)
attr title "packets dropped (checksum error), count"
vector 78 SmartSubstationTopology.stationB_BusProtection.udp passedUpPk:vector(count) ETV
attr interpolationmode none
attr recordingmode vector(count)
attr source packetSentToUpper
attr title "packets passed up, count"
vector 79 SmartSubstationTopology.stationB_BusProtection.udp droppedPkWrongPort:vector(count) ETV
attr interpolationmode none
attr recordingmode vector(count)
attr source packetDropReasonIsNoPortFound(packetDropped)
attr title "packets dropped (wrong port), count"
vector 80 SmartSubstationTopology.stationB_BusProtection.udp droppedPkBadChecksum:vector(count) ETV
attr interpolationmode none
attr recordingmode vector(count)
attr source packetDropReasonIsIncorrectlyReceived(packetDropped)
attr title "packets dropped (checksum error), count"
vector 81 SmartSubstationTopology.stationB_Camera1.udp passedUpPk:vector(count) ETV
attr interpolationmode none
attr recordingmode vector(count)
attr source packetSentToUpper
attr title "packets passed up, count"
vector 82 SmartSubstationTopology.stationB_Camera1.udp droppedPkWrongPort:vector(count) ETV
attr interpolationmode none
attr recordingmode vector(count)
attr source packetDropReasonIsNoPortFound(packetDropped)
attr title "packets dropped (wrong port), count"
vector 83 SmartSubstationTopology.stationB_Camera1.udp droppedPkBadChecksum:vector(count) ETV
attr interpolationmode none
attr recordingmode vector(count)
attr source packetDropReasonIsIncorrectlyReceived(packetDropped)
attr title "packets dropped (checksum error), count"
vector 84 SmartSubstationTopology.stationB_Camera2.udp passedUpPk:vector(count) ETV
attr interpolationmode none
attr recordingmode vector(count)
attr source packetSentToUpper
attr title "packets passed up, count"
vector 85 SmartSubstationTopology.stationB_Camera2.udp droppedPkWrongPort:vector(count) ETV
attr interpolationmode none
attr recordingmode vector(count)
attr source packetDropReasonIsNoPortFound(packetDropped)
attr title "packets dropped (wrong port), count"
vector 86 SmartSubstationTopology.stationB_Camera2.udp droppedPkBadChecksum:vector(count) ETV
attr interpolationmode none
attr recordingmode vector(count)
attr source packetDropReasonIsIncorrectlyReceived(packetDropped)
attr title "packets dropped (checksum error), count"
vector 87 SmartSubstationTopology.stationB_Camera3.udp passedUpPk:vector(count) ETV
attr interpolationmode none
attr recordingmode vector(count)
attr source packetSentToUpper
attr title "packets passed up, count"
vector 88 SmartSubstationTopology.stationB_Camera3.udp droppedPkWrongPort:vector(count) ETV
attr interpolationmode none
attr recordingmode vector(count)
attr source packetDropReasonIsNoPortFound(packetDropped)
attr title "packets dropped (wrong port), count"
vector 89 SmartSubstationTopology.stationB_Camera3.udp droppedPkBadChecksum:vector(count) ETV
attr interpolationmode none
attr recordingmode vector(count)
attr source packetDropReasonIsIncorrectlyReceived(packetDropped)
attr title "packets dropped (checksum error), count"
vector 90 SmartSubstationTopology.stationB_Camera4.udp passedUpPk:vector(count) ETV
attr interpolationmode none
attr recordingmode vector(count)
attr source packetSentToUpper
attr title "packets passed up, count"
vector 91 SmartSubstationTopology.stationB_Camera4.udp droppedPkWrongPort:vector(count) ETV
attr interpolationmode none
attr recordingmode vector(count)
attr source packetDropReasonIsNoPortFound(packetDropped)
attr title "packets dropped (wrong port), count"
vector 92 SmartSubstationTopology.stationB_Camera4.udp droppedPkBadChecksum:vector(count) ETV
attr interpolationmode none
attr recordingmode vector(count)
attr source packetDropReasonIsIncorrectlyReceived(packetDropped)
attr title "packets dropped (checksum error), count"
vector 93 SmartSubstationTopology.stationB_Camera5.udp passedUpPk:vector(count) ETV
attr interpolationmode none
attr recordingmode vector(count)
attr source packetSentToUpper
attr title "packets passed up, count"
vector 94 SmartSubstationTopology.stationB_Camera5.udp droppedPkWrongPort:vector(count) ETV
attr interpolationmode none
attr recordingmode vector(count)
attr source packetDropReasonIsNoPortFound(packetDropped)
attr title "packets dropped (wrong port), count"
vector 95 SmartSubstationTopology.stationB_Camera5.udp droppedPkBadChecksum:vector(count) ETV
attr interpolationmode none
attr recordingmode vector(count)
attr source packetDropReasonIsIncorrectlyReceived(packetDropped)
attr title "packets dropped (checksum error), count"
vector 96 SmartSubstationTopology.stationB_Camera6.udp passedUpPk:vector(count) ETV
attr interpolationmode none
attr recordingmode vector(count)
attr source packetSentToUpper
attr title "packets passed up, count"
vector 97 SmartSubstationTopology.stationB_Camera6.udp droppedPkWrongPort:vector(count) ETV
attr interpolationmode none
attr recordingmode vector(count)
attr source packetDropReasonIsNoPortFound(packetDropped)
attr title "packets dropped (wrong port), count"
vector 98 SmartSubstationTopology.stationB_Camera6.udp droppedPkBadChecksum:vector(count) ETV
attr interpolationmode none
attr recordingmode vector(count)
attr source packetDropReasonIsIncorrectlyReceived(packetDropped)
attr title "packets dropped (checksum error), count"
vector 99 SmartSubstationTopology.stationB_Camera7.udp passedUpPk:vector(count) ETV
attr interpolationmode none
attr recordingmode vector(count)
attr source packetSentToUpper
attr title "packets passed up, count"
vector 100 SmartSubstationTopology.stationB_Camera7.udp droppedPkWrongPort:vector(count) ETV
attr interpolationmode none
attr recordingmode vector(count)
attr source packetDropReasonIsNoPortFound(packetDropped)
attr title "packets dropped (wrong port), count"
vector 101 SmartSubstationTopology.stationB_Camera7.udp droppedPkBadChecksum:vector(count) ETV
attr interpolationmode none
attr recordingmode vector(count)
attr source packetDropReasonIsIncorrectlyReceived(packetDropped)
attr title "packets dropped (checksum error), count"
vector 102 SmartSubstationTopology.stationB_Camera8.udp passedUpPk:vector(count) ETV
attr interpolationmode none
attr recordingmode vector(count)
attr source packetSentToUpper
attr title "packets passed up, count"
vector 103 SmartSubstationTopology.stationB_Camera8.udp droppedPkWrongPort:vector(count) ETV
attr interpolationmode none
attr recordingmode vector(count)
attr source packetDropReasonIsNoPortFound(packetDropped)
attr title "packets dropped (wrong port), count"
vector 104 SmartSubstationTopology.stationB_Camera8.udp droppedPkBadChecksum:vector(count) ETV
attr interpolationmode none
attr recordingmode vector(count)
attr source packetDropReasonIsIncorrectlyReceived(packetDropped)
attr title "packets dropped (checksum error), count"
vector 105 SmartSubstationTopology.stationB_Camera9.udp passedUpPk:vector(count) ETV
attr interpolationmode none
attr recordingmode vector(count)
attr source packetSentToUpper
attr title "packets passed up, count"
vector 106 SmartSubstationTopology.stationB_Camera9.udp droppedPkWrongPort:vector(count) ETV
attr interpolationmode none
attr recordingmode vector(count)
attr source packetDropReasonIsNoPortFound(packetDropped)
attr title "packets dropped (wrong port), count"
vector 107 SmartSubstationTopology.stationB_Camera9.udp droppedPkBadChecksum:vector(count) ETV
attr interpolationmode none
attr recordingmode vector(count)
attr source packetDropReasonIsIncorrectlyReceived(packetDropped)
attr title "packets dropped (checksum error), count"
vector 108 SmartSubstationTopology.stationB_Camera10.udp passedUpPk:vector(count) ETV
attr interpolationmode none
attr recordingmode vector(count)
attr source packetSentToUpper
attr title "packets passed up, count"
vector 109 SmartSubstationTopology.stationB_Camera10.udp droppedPkWrongPort:vector(count) ETV
attr interpolationmode none
attr recordingmode vector(count)
attr source packetDropReasonIsNoPortFound(packetDropped)
attr title "packets dropped (wrong port), count"
vector 110 SmartSubstationTopology.stationB_Camera10.udp droppedPkBadChecksum:vector(count) ETV
attr interpolationmode none
attr recordingmode vector(count)
attr source packetDropReasonIsIncorrectlyReceived(packetDropped)
attr title "packets dropped (checksum error), count"
vector 111 SmartSubstationTopology.stationB_VoIP1.udp passedUpPk:vector(count) ETV
attr interpolationmode none
attr recordingmode vector(count)
attr source packetSentToUpper
attr title "packets passed up, count"
vector 112 SmartSubstationTopology.stationB_VoIP1.udp droppedPkWrongPort:vector(count) ETV
attr interpolationmode none
attr recordingmode vector(count)
attr source packetDropReasonIsNoPortFound(packetDropped)
attr title "packets dropped (wrong port), count"
vector 113 SmartSubstationTopology.stationB_VoIP1.udp droppedPkBadChecksum:vector(count) ETV
attr interpolationmode none
attr recordingmode vector(count)
attr source packetDropReasonIsIncorrectlyReceived(packetDropped)
attr title "packets dropped (checksum error), count"
vector 114 SmartSubstationTopology.stationB_VoIP2.udp passedUpPk:vector(count) ETV
attr interpolationmode none
attr recordingmode vector(count)
attr source packetSentToUpper
attr title "packets passed up, count"
vector 115 SmartSubstationTopology.stationB_VoIP2.udp droppedPkWrongPort:vector(count) ETV
attr interpolationmode none
attr recordingmode vector(count)
attr source packetDropReasonIsNoPortFound(packetDropped)
attr title "packets dropped (wrong port), count"
vector 116 SmartSubstationTopology.stationB_VoIP2.udp droppedPkBadChecksum:vector(count) ETV
attr interpolationmode none
attr recordingmode vector(count)
attr source packetDropReasonIsIncorrectlyReceived(packetDropped)
attr title "packets dropped (checksum error), count"
vector 117 SmartSubstationTopology.stationB_OMServer.udp passedUpPk:vector(count) ETV
attr interpolationmode none
attr recordingmode vector(count)
attr source packetSentToUpper
attr title "packets passed up, count"
vector 118 SmartSubstationTopology.stationB_OMServer.udp droppedPkWrongPort:vector(count) ETV
attr interpolationmode none
attr recordingmode vector(count)
attr source packetDropReasonIsNoPortFound(packetDropped)
attr title "packets dropped (wrong port), count"
vector 119 SmartSubstationTopology.stationB_OMServer.udp droppedPkBadChecksum:vector(count) ETV
attr interpolationmode none
attr recordingmode vector(count)
attr source packetDropReasonIsIncorrectlyReceived(packetDropped)
attr title "packets dropped (checksum error), count"
vector 120 SmartSubstationTopology.borderGateway1.udp passedUpPk:vector(count) ETV
attr interpolationmode none
attr recordingmode vector(count)
attr source packetSentToUpper
attr title "packets passed up, count"
vector 121 SmartSubstationTopology.borderGateway1.udp droppedPkWrongPort:vector(count) ETV
attr interpolationmode none
attr recordingmode vector(count)
attr source packetDropReasonIsNoPortFound(packetDropped)
attr title "packets dropped (wrong port), count"
vector 122 SmartSubstationTopology.borderGateway1.udp droppedPkBadChecksum:vector(count) ETV
attr interpolationmode none
attr recordingmode vector(count)
attr source packetDropReasonIsIncorrectlyReceived(packetDropped)
attr title "packets dropped (checksum error), count"
vector 123 SmartSubstationTopology.borderGateway2.udp passedUpPk:vector(count) ETV
attr interpolationmode none
attr recordingmode vector(count)
attr source packetSentToUpper
attr title "packets passed up, count"
vector 124 SmartSubstationTopology.borderGateway2.udp droppedPkWrongPort:vector(count) ETV
attr interpolationmode none
attr recordingmode vector(count)
attr source packetDropReasonIsNoPortFound(packetDropped)
attr title "packets dropped (wrong port), count"
vector 125 SmartSubstationTopology.borderGateway2.udp droppedPkBadChecksum:vector(count) ETV
attr interpolationmode none
attr recordingmode vector(count)
attr source packetDropReasonIsIncorrectlyReceived(packetDropped)
attr title "packets dropped (checksum error), count"
vector 126 SmartSubstationTopology.otnDevice.udp passedUpPk:vector(count) ETV
attr interpolationmode none
attr recordingmode vector(count)
attr source packetSentToUpper
attr title "packets passed up, count"
vector 127 SmartSubstationTopology.otnDevice.udp droppedPkWrongPort:vector(count) ETV
attr interpolationmode none
attr recordingmode vector(count)
attr source packetDropReasonIsNoPortFound(packetDropped)
attr title "packets dropped (wrong port), count"
vector 128 SmartSubstationTopology.otnDevice.udp droppedPkBadChecksum:vector(count) ETV
attr interpolationmode none
attr recordingmode vector(count)
attr source packetDropReasonIsIncorrectlyReceived(packetDropped)
attr title "packets dropped (checksum error), count"
vector 129 SmartSubstationTopology.stationA_TSN.ieee8021q.qTagHeaderChecker droppedDataRate:vector ETV
attr interpolationmode linear
attr recordingmode vector
attr source throughput(packetDropped)
attr title "dropped data rate"
attr unit bps
vector 130 SmartSubstationTopology.stationA_TSN.ieee8021r.rTagHeaderChecker droppedDataRate:vector ETV
attr interpolationmode linear
attr recordingmode vector
attr source throughput(packetDropped)
attr title "dropped data rate"
attr unit bps
vector 131 SmartSubstationTopology.stationA_TSN.eth[0].queue outgoingDataRate:vector ETV
attr interpolationmode linear
attr recordingmode vector
attr source throughput(packetPulled)
attr title "outgoing datarate"
attr unit bps
vector 132 SmartSubstationTopology.stationA_TSN.eth[0].queue incomingDataRate:vector ETV
attr interpolationmode linear
attr recordingmode vector
attr source throughput(packetPushStarted)
attr title "incoming datarate"
attr unit bps
vector 133 SmartSubstationTopology.stationA_TSN.eth[1].queue outgoingDataRate:vector ETV
attr interpolationmode linear
attr recordingmode vector
attr source throughput(packetPulled)
attr title "outgoing datarate"
attr unit bps
vector 134 SmartSubstationTopology.stationA_TSN.eth[1].queue incomingDataRate:vector ETV
attr interpolationmode linear
attr recordingmode vector
attr source throughput(packetPushStarted)
attr title "incoming datarate"
attr unit bps
vector 135 SmartSubstationTopology.stationA_TSN.eth[2].queue outgoingDataRate:vector ETV
attr interpolationmode linear
attr recordingmode vector
attr source throughput(packetPulled)
attr title "outgoing datarate"
attr unit bps
vector 136 SmartSubstationTopology.stationA_TSN.eth[2].queue incomingDataRate:vector ETV
attr interpolationmode linear
attr recordingmode vector
attr source throughput(packetPushStarted)
attr title "incoming datarate"
attr unit bps
vector 137 SmartSubstationTopology.stationA_TSN.eth[3].queue outgoingDataRate:vector ETV
attr interpolationmode linear
attr recordingmode vector
attr source throughput(packetPulled)
attr title "outgoing datarate"
attr unit bps
vector 138 SmartSubstationTopology.stationA_TSN.eth[3].queue incomingDataRate:vector ETV
attr interpolationmode linear
attr recordingmode vector
attr source throughput(packetPushStarted)
attr title "incoming datarate"
attr unit bps
vector 139 SmartSubstationTopology.stationA_TSN.eth[4].queue outgoingDataRate:vector ETV
attr interpolationmode linear
attr recordingmode vector
attr source throughput(packetPulled)
attr title "outgoing datarate"
attr unit bps
vector 140 SmartSubstationTopology.stationA_TSN.eth[4].queue incomingDataRate:vector ETV
attr interpolationmode linear
attr recordingmode vector
attr source throughput(packetPushStarted)
attr title "incoming datarate"
attr unit bps
vector 141 SmartSubstationTopology.stationA_TSN.eth[5].queue outgoingDataRate:vector ETV
attr interpolationmode linear
attr recordingmode vector
attr source throughput(packetPulled)
attr title "outgoing datarate"
attr unit bps
vector 142 SmartSubstationTopology.stationA_TSN.eth[5].queue incomingDataRate:vector ETV
attr interpolationmode linear
attr recordingmode vector
attr source throughput(packetPushStarted)
attr title "incoming datarate"
attr unit bps
vector 143 SmartSubstationTopology.stationA_TSN.eth[6].queue outgoingDataRate:vector ETV
attr interpolationmode linear
attr recordingmode vector
attr source throughput(packetPulled)
attr title "outgoing datarate"
attr unit bps
vector 144 SmartSubstationTopology.stationA_TSN.eth[6].queue incomingDataRate:vector ETV
attr interpolationmode linear
attr recordingmode vector
attr source throughput(packetPushStarted)
attr title "incoming datarate"
attr unit bps
vector 145 SmartSubstationTopology.stationA_TSN.eth[7].queue outgoingDataRate:vector ETV
attr interpolationmode linear
attr recordingmode vector
attr source throughput(packetPulled)
attr title "outgoing datarate"
attr unit bps
vector 146 SmartSubstationTopology.stationA_TSN.eth[7].queue incomingDataRate:vector ETV
attr interpolationmode linear
attr recordingmode vector
attr source throughput(packetPushStarted)
attr title "incoming datarate"
attr unit bps
vector 147 SmartSubstationTopology.stationA_TSN.eth[8].queue outgoingDataRate:vector ETV
attr interpolationmode linear
attr recordingmode vector
attr source throughput(packetPulled)
attr title "outgoing datarate"
attr unit bps
vector 148 SmartSubstationTopology.stationA_TSN.eth[8].queue incomingDataRate:vector ETV
attr interpolationmode linear
attr recordingmode vector
attr source throughput(packetPushStarted)
attr title "incoming datarate"
attr unit bps
vector 149 SmartSubstationTopology.stationA_TSN.eth[9].queue outgoingDataRate:vector ETV
attr interpolationmode linear
attr recordingmode vector
attr source throughput(packetPulled)
attr title "outgoing datarate"
attr unit bps
vector 150 SmartSubstationTopology.stationA_TSN.eth[9].queue incomingDataRate:vector ETV
attr interpolationmode linear
attr recordingmode vector
attr source throughput(packetPushStarted)
attr title "incoming datarate"
attr unit bps
vector 151 SmartSubstationTopology.stationA_TSN.eth[10].queue outgoingDataRate:vector ETV
attr interpolationmode linear
attr recordingmode vector
attr source throughput(packetPulled)
attr title "outgoing datarate"
attr unit bps
vector 152 SmartSubstationTopology.stationA_TSN.eth[10].queue incomingDataRate:vector ETV
attr interpolationmode linear
attr recordingmode vector
attr source throughput(packetPushStarted)
attr title "incoming datarate"
attr unit bps
vector 153 SmartSubstationTopology.stationA_TSN.eth[11].queue outgoingDataRate:vector ETV
attr interpolationmode linear
attr recordingmode vector
attr source throughput(packetPulled)
attr title "outgoing datarate"
attr unit bps
vector 154 SmartSubstationTopology.stationA_TSN.eth[11].queue incomingDataRate:vector ETV
attr interpolationmode linear
attr recordingmode vector
attr source throughput(packetPushStarted)
attr title "incoming datarate"
attr unit bps
vector 155 SmartSubstationTopology.stationA_TSN.eth[12].queue outgoingDataRate:vector ETV
attr interpolationmode linear
attr recordingmode vector
attr source throughput(packetPulled)
attr title "outgoing datarate"
attr unit bps
vector 156 SmartSubstationTopology.stationA_TSN.eth[12].queue incomingDataRate:vector ETV
attr interpolationmode linear
attr recordingmode vector
attr source throughput(packetPushStarted)
attr title "incoming datarate"
attr unit bps
vector 157 SmartSubstationTopology.stationA_TSN.eth[13].queue outgoingDataRate:vector ETV
attr interpolationmode linear
attr recordingmode vector
attr source throughput(packetPulled)
attr title "outgoing datarate"
attr unit bps
vector 158 SmartSubstationTopology.stationA_TSN.eth[13].queue incomingDataRate:vector ETV
attr interpolationmode linear
attr recordingmode vector
attr source throughput(packetPushStarted)
attr title "incoming datarate"
attr unit bps
vector 159 SmartSubstationTopology.stationA_TSN.eth[14].queue outgoingDataRate:vector ETV
attr interpolationmode linear
attr recordingmode vector
attr source throughput(packetPulled)
attr title "outgoing datarate"
attr unit bps
vector 160 SmartSubstationTopology.stationA_TSN.eth[14].queue incomingDataRate:vector ETV
attr interpolationmode linear
attr recordingmode vector
attr source throughput(packetPushStarted)
attr title "incoming datarate"
attr unit bps
vector 161 SmartSubstationTopology.stationA_TSN.eth[15].queue outgoingDataRate:vector ETV
attr interpolationmode linear
attr recordingmode vector
attr source throughput(packetPulled)
attr title "outgoing datarate"
attr unit bps
vector 162 SmartSubstationTopology.stationA_TSN.eth[15].queue incomingDataRate:vector ETV
attr interpolationmode linear
attr recordingmode vector
attr source throughput(packetPushStarted)
attr title "incoming datarate"
attr unit bps
vector 163 SmartSubstationTopology.stationA_TSN.eth[16].queue outgoingDataRate:vector ETV
attr interpolationmode linear
attr recordingmode vector
attr source throughput(packetPulled)
attr title "outgoing datarate"
attr unit bps
vector 164 SmartSubstationTopology.stationA_TSN.eth[16].queue incomingDataRate:vector ETV
attr interpolationmode linear
attr recordingmode vector
attr source throughput(packetPushStarted)
attr title "incoming datarate"
attr unit bps
vector 165 SmartSubstationTopology.stationA_TSN.eth[17].queue outgoingDataRate:vector ETV
attr interpolationmode linear
attr recordingmode vector
attr source throughput(packetPulled)
attr title "outgoing datarate"
attr unit bps
vector 166 SmartSubstationTopology.stationA_TSN.eth[17].queue incomingDataRate:vector ETV
attr interpolationmode linear
attr recordingmode vector
attr source throughput(packetPushStarted)
attr title "incoming datarate"
attr unit bps
vector 167 SmartSubstationTopology.stationA_TSN.eth[18].queue outgoingDataRate:vector ETV
attr interpolationmode linear
attr recordingmode vector
attr source throughput(packetPulled)
attr title "outgoing datarate"
attr unit bps
vector 168 SmartSubstationTopology.stationA_TSN.eth[18].queue incomingDataRate:vector ETV
attr interpolationmode linear
attr recordingmode vector
attr source throughput(packetPushStarted)
attr title "incoming datarate"
attr unit bps
vector 169 SmartSubstationTopology.stationA_TSN.eth[19].queue outgoingDataRate:vector ETV
attr interpolationmode linear
attr recordingmode vector
attr source throughput(packetPulled)
attr title "outgoing datarate"
attr unit bps
vector 170 SmartSubstationTopology.stationA_TSN.eth[19].queue incomingDataRate:vector ETV
attr interpolationmode linear
attr recordingmode vector
attr source throughput(packetPushStarted)
attr title "incoming datarate"
attr unit bps
vector 171 SmartSubstationTopology.stationA_TSN.eth[20].queue outgoingDataRate:vector ETV
attr interpolationmode linear
attr recordingmode vector
attr source throughput(packetPulled)
attr title "outgoing datarate"
attr unit bps
vector 172 SmartSubstationTopology.stationA_TSN.eth[20].queue incomingDataRate:vector ETV
attr interpolationmode linear
attr recordingmode vector
attr source throughput(packetPushStarted)
attr title "incoming datarate"
attr unit bps
vector 173 SmartSubstationTopology.stationA_MU.eth[0].queue outgoingDataRate:vector ETV
attr interpolationmode linear
attr recordingmode vector
attr source throughput(packetPulled)
attr title "outgoing datarate"
attr unit bps
vector 174 SmartSubstationTopology.stationA_MU.eth[0].queue incomingDataRate:vector ETV
attr interpolationmode linear
attr recordingmode vector
attr source throughput(packetPushStarted)
attr title "incoming datarate"
attr unit bps
vector 175 SmartSubstationTopology.stationA_Protection.eth[0].queue outgoingDataRate:vector ETV
attr interpolationmode linear
attr recordingmode vector
attr source throughput(packetPulled)
attr title "outgoing datarate"
attr unit bps
vector 176 SmartSubstationTopology.stationA_Protection.eth[0].queue incomingDataRate:vector ETV
attr interpolationmode linear
attr recordingmode vector
attr source throughput(packetPushStarted)
attr title "incoming datarate"
attr unit bps
vector 177 SmartSubstationTopology.stationA_Protection.app[0] throughput:vector ETV
attr recordingmode vector
attr source throughput(packetReceived)
attr title throughput
attr unit bps
vector 178 SmartSubstationTopology.stationA_IT.eth[0].queue outgoingDataRate:vector ETV
attr interpolationmode linear
attr recordingmode vector
attr source throughput(packetPulled)
attr title "outgoing datarate"
attr unit bps
vector 179 SmartSubstationTopology.stationA_IT.eth[0].queue incomingDataRate:vector ETV
attr interpolationmode linear
attr recordingmode vector
attr source throughput(packetPushStarted)
attr title "incoming datarate"
attr unit bps
vector 180 SmartSubstationTopology.stationA_BusProtection_MU1.eth[0].queue outgoingDataRate:vector ETV
attr interpolationmode linear
attr recordingmode vector
attr source throughput(packetPulled)
attr title "outgoing datarate"
attr unit bps
vector 181 SmartSubstationTopology.stationA_BusProtection_MU1.eth[0].queue incomingDataRate:vector ETV
attr interpolationmode linear
attr recordingmode vector
attr source throughput(packetPushStarted)
attr title "incoming datarate"
attr unit bps
vector 182 SmartSubstationTopology.stationA_BusProtection_MU1.app[0] throughput:vector ETV
attr recordingmode vector
attr source throughput(packetReceived)
attr title throughput
attr unit bps
vector 183 SmartSubstationTopology.stationA_BusProtection_MU2.eth[0].queue outgoingDataRate:vector ETV
attr interpolationmode linear
attr recordingmode vector
attr source throughput(packetPulled)
attr title "outgoing datarate"
attr unit bps
vector 184 SmartSubstationTopology.stationA_BusProtection_MU2.eth[0].queue incomingDataRate:vector ETV
attr interpolationmode linear
attr recordingmode vector
attr source throughput(packetPushStarted)
attr title "incoming datarate"
attr unit bps
vector 185 SmartSubstationTopology.stationA_BusProtection_MU2.app[0] throughput:vector ETV
attr recordingmode vector
attr source throughput(packetReceived)
attr title throughput
attr unit bps
vector 186 SmartSubstationTopology.stationA_BusProtection_MU3.eth[0].queue outgoingDataRate:vector ETV
attr interpolationmode linear
attr recordingmode vector
attr source throughput(packetPulled)
attr title "outgoing datarate"
attr unit bps
vector 187 SmartSubstationTopology.stationA_BusProtection_MU3.eth[0].queue incomingDataRate:vector ETV
attr interpolationmode linear
attr recordingmode vector
attr source throughput(packetPushStarted)
attr title "incoming datarate"
attr unit bps
vector 188 SmartSubstationTopology.stationA_BusProtection_MU3.app[0] throughput:vector ETV
attr recordingmode vector
attr source throughput(packetReceived)
attr title throughput
attr unit bps
vector 189 SmartSubstationTopology.stationA_BusProtection.eth[0].queue outgoingDataRate:vector ETV
attr interpolationmode linear
attr recordingmode vector
attr source throughput(packetPulled)
attr title "outgoing datarate"
attr unit bps
vector 190 SmartSubstationTopology.stationA_BusProtection.eth[0].queue incomingDataRate:vector ETV
attr interpolationmode linear
attr recordingmode vector
attr source throughput(packetPushStarted)
attr title "incoming datarate"
attr unit bps
vector 191 SmartSubstationTopology.stationA_BusProtection.app[0] throughput:vector ETV
attr recordingmode vector
attr source throughput(packetReceived)
attr title throughput
attr unit bps
vector 192 SmartSubstationTopology.stationA_Camera1.eth[0].queue outgoingDataRate:vector ETV
attr interpolationmode linear
attr recordingmode vector
attr source throughput(packetPulled)
attr title "outgoing datarate"
attr unit bps
vector 193 SmartSubstationTopology.stationA_Camera1.eth[0].queue incomingDataRate:vector ETV
attr interpolationmode linear
attr recordingmode vector
attr source throughput(packetPushStarted)
attr title "incoming datarate"
attr unit bps
vector 194 SmartSubstationTopology.stationA_Camera2.eth[0].queue outgoingDataRate:vector ETV
attr interpolationmode linear
attr recordingmode vector
attr source throughput(packetPulled)
attr title "outgoing datarate"
attr unit bps
vector 195 SmartSubstationTopology.stationA_Camera2.eth[0].queue incomingDataRate:vector ETV
attr interpolationmode linear
attr recordingmode vector
attr source throughput(packetPushStarted)
attr title "incoming datarate"
attr unit bps
vector 196 SmartSubstationTopology.stationA_Camera3.eth[0].queue outgoingDataRate:vector ETV
attr interpolationmode linear
attr recordingmode vector
attr source throughput(packetPulled)
attr title "outgoing datarate"
attr unit bps
vector 197 SmartSubstationTopology.stationA_Camera3.eth[0].queue incomingDataRate:vector ETV
attr interpolationmode linear
attr recordingmode vector
attr source throughput(packetPushStarted)
attr title "incoming datarate"
attr unit bps
vector 198 SmartSubstationTopology.stationA_Camera4.eth[0].queue outgoingDataRate:vector ETV
attr interpolationmode linear
attr recordingmode vector
attr source throughput(packetPulled)
attr title "outgoing datarate"
attr unit bps
vector 199 SmartSubstationTopology.stationA_Camera4.eth[0].queue incomingDataRate:vector ETV
attr interpolationmode linear
attr recordingmode vector
attr source throughput(packetPushStarted)
attr title "incoming datarate"
attr unit bps
vector 200 SmartSubstationTopology.stationA_Camera5.eth[0].queue outgoingDataRate:vector ETV
attr interpolationmode linear
attr recordingmode vector
attr source throughput(packetPulled)
attr title "outgoing datarate"
attr unit bps
vector 201 SmartSubstationTopology.stationA_Camera5.eth[0].queue incomingDataRate:vector ETV
attr interpolationmode linear
attr recordingmode vector
attr source throughput(packetPushStarted)
attr title "incoming datarate"
attr unit bps
vector 202 SmartSubstationTopology.stationA_Camera6.eth[0].queue outgoingDataRate:vector ETV
attr interpolationmode linear
attr recordingmode vector
attr source throughput(packetPulled)
attr title "outgoing datarate"
attr unit bps
vector 203 SmartSubstationTopology.stationA_Camera6.eth[0].queue incomingDataRate:vector ETV
attr interpolationmode linear
attr recordingmode vector
attr source throughput(packetPushStarted)
attr title "incoming datarate"
attr unit bps
vector 204 SmartSubstationTopology.stationA_Camera7.eth[0].queue outgoingDataRate:vector ETV
attr interpolationmode linear
attr recordingmode vector
attr source throughput(packetPulled)
attr title "outgoing datarate"
attr unit bps
vector 205 SmartSubstationTopology.stationA_Camera7.eth[0].queue incomingDataRate:vector ETV
attr interpolationmode linear
attr recordingmode vector
attr source throughput(packetPushStarted)
attr title "incoming datarate"
attr unit bps
vector 206 SmartSubstationTopology.stationA_Camera8.eth[0].queue outgoingDataRate:vector ETV
attr interpolationmode linear
attr recordingmode vector
attr source throughput(packetPulled)
attr title "outgoing datarate"
attr unit bps
vector 207 SmartSubstationTopology.stationA_Camera8.eth[0].queue incomingDataRate:vector ETV
attr interpolationmode linear
attr recordingmode vector
attr source throughput(packetPushStarted)
attr title "incoming datarate"
attr unit bps
vector 208 SmartSubstationTopology.stationA_Camera9.eth[0].queue outgoingDataRate:vector ETV
attr interpolationmode linear
attr recordingmode vector
attr source throughput(packetPulled)
attr title "outgoing datarate"
attr unit bps
vector 209 SmartSubstationTopology.stationA_Camera9.eth[0].queue incomingDataRate:vector ETV
attr interpolationmode linear
attr recordingmode vector
attr source throughput(packetPushStarted)
attr title "incoming datarate"
attr unit bps
vector 210 SmartSubstationTopology.stationA_Camera10.eth[0].queue outgoingDataRate:vector ETV
attr interpolationmode linear
attr recordingmode vector
attr source throughput(packetPulled)
attr title "outgoing datarate"
attr unit bps
vector 211 SmartSubstationTopology.stationA_Camera10.eth[0].queue incomingDataRate:vector ETV
attr interpolationmode linear
attr recordingmode vector
attr source throughput(packetPushStarted)
attr title "incoming datarate"
attr unit bps
vector 212 SmartSubstationTopology.stationA_VoIP1.eth[0].queue outgoingDataRate:vector ETV
attr interpolationmode linear
attr recordingmode vector
attr source throughput(packetPulled)
attr title "outgoing datarate"
attr unit bps
vector 213 SmartSubstationTopology.stationA_VoIP1.eth[0].queue incomingDataRate:vector ETV
attr interpolationmode linear
attr recordingmode vector
attr source throughput(packetPushStarted)
attr title "incoming datarate"
attr unit bps
vector 214 SmartSubstationTopology.stationA_VoIP2.eth[0].queue outgoingDataRate:vector ETV
attr interpolationmode linear
attr recordingmode vector
attr source throughput(packetPulled)
attr title "outgoing datarate"
attr unit bps
vector 215 SmartSubstationTopology.stationA_VoIP2.eth[0].queue incomingDataRate:vector ETV
attr interpolationmode linear
attr recordingmode vector
attr source throughput(packetPushStarted)
attr title "incoming datarate"
attr unit bps
vector 216 SmartSubstationTopology.stationA_OMServer.eth[0].queue outgoingDataRate:vector ETV
attr interpolationmode linear
attr recordingmode vector
attr source throughput(packetPulled)
attr title "outgoing datarate"
attr unit bps
vector 217 SmartSubstationTopology.stationA_OMServer.eth[0].queue incomingDataRate:vector ETV
attr interpolationmode linear
attr recordingmode vector
attr source throughput(packetPushStarted)
attr title "incoming datarate"
attr unit bps
vector 218 SmartSubstationTopology.stationA_OMServer.app[0] throughput:vector ETV
attr recordingmode vector
attr source throughput(packetReceived)
attr title throughput
attr unit bps
vector 219 SmartSubstationTopology.stationB_TSN.ieee8021q.qTagHeaderChecker droppedDataRate:vector ETV
attr interpolationmode linear
attr recordingmode vector
attr source throughput(packetDropped)
attr title "dropped data rate"
attr unit bps
vector 220 SmartSubstationTopology.stationB_TSN.ieee8021r.rTagHeaderChecker droppedDataRate:vector ETV
attr interpolationmode linear
attr recordingmode vector
attr source throughput(packetDropped)
attr title "dropped data rate"
attr unit bps
vector 221 SmartSubstationTopology.stationB_TSN.eth[0].queue outgoingDataRate:vector ETV
attr interpolationmode linear
attr recordingmode vector
attr source throughput(packetPulled)
attr title "outgoing datarate"
attr unit bps
vector 222 SmartSubstationTopology.stationB_TSN.eth[0].queue incomingDataRate:vector ETV
attr interpolationmode linear
attr recordingmode vector
attr source throughput(packetPushStarted)
attr title "incoming datarate"
attr unit bps
vector 223 SmartSubstationTopology.stationB_TSN.eth[1].queue outgoingDataRate:vector ETV
attr interpolationmode linear
attr recordingmode vector
attr source throughput(packetPulled)
attr title "outgoing datarate"
attr unit bps
vector 224 SmartSubstationTopology.stationB_TSN.eth[1].queue incomingDataRate:vector ETV
attr interpolationmode linear
attr recordingmode vector
attr source throughput(packetPushStarted)
attr title "incoming datarate"
attr unit bps
vector 225 SmartSubstationTopology.stationB_TSN.eth[2].queue outgoingDataRate:vector ETV
attr interpolationmode linear
attr recordingmode vector
attr source throughput(packetPulled)
attr title "outgoing datarate"
attr unit bps
vector 226 SmartSubstationTopology.stationB_TSN.eth[2].queue incomingDataRate:vector ETV
attr interpolationmode linear
attr recordingmode vector
attr source throughput(packetPushStarted)
attr title "incoming datarate"
attr unit bps
vector 227 SmartSubstationTopology.stationB_TSN.eth[3].queue outgoingDataRate:vector ETV
attr interpolationmode linear
attr recordingmode vector
attr source throughput(packetPulled)
attr title "outgoing datarate"
attr unit bps
vector 228 SmartSubstationTopology.stationB_TSN.eth[3].queue incomingDataRate:vector ETV
attr interpolationmode linear
attr recordingmode vector
attr source throughput(packetPushStarted)
attr title "incoming datarate"
attr unit bps
vector 229 SmartSubstationTopology.stationB_TSN.eth[4].queue outgoingDataRate:vector ETV
attr interpolationmode linear
attr recordingmode vector
attr source throughput(packetPulled)
attr title "outgoing datarate"
attr unit bps
vector 230 SmartSubstationTopology.stationB_TSN.eth[4].queue incomingDataRate:vector ETV
attr interpolationmode linear
attr recordingmode vector
attr source throughput(packetPushStarted)
attr title "incoming datarate"
attr unit bps
vector 231 SmartSubstationTopology.stationB_TSN.eth[5].queue outgoingDataRate:vector ETV
attr interpolationmode linear
attr recordingmode vector
attr source throughput(packetPulled)
attr title "outgoing datarate"
attr unit bps
vector 232 SmartSubstationTopology.stationB_TSN.eth[5].queue incomingDataRate:vector ETV
attr interpolationmode linear
attr recordingmode vector
attr source throughput(packetPushStarted)
attr title "incoming datarate"
attr unit bps
vector 233 SmartSubstationTopology.stationB_TSN.eth[6].queue outgoingDataRate:vector ETV
attr interpolationmode linear
attr recordingmode vector
attr source throughput(packetPulled)
attr title "outgoing datarate"
attr unit bps
vector 234 SmartSubstationTopology.stationB_TSN.eth[6].queue incomingDataRate:vector ETV
attr interpolationmode linear
attr recordingmode vector
attr source throughput(packetPushStarted)
attr title "incoming datarate"
attr unit bps
vector 235 SmartSubstationTopology.stationB_TSN.eth[7].queue outgoingDataRate:vector ETV
attr interpolationmode linear
attr recordingmode vector
attr source throughput(packetPulled)
attr title "outgoing datarate"
attr unit bps
vector 236 SmartSubstationTopology.stationB_TSN.eth[7].queue incomingDataRate:vector ETV
attr interpolationmode linear
attr recordingmode vector
attr source throughput(packetPushStarted)
attr title "incoming datarate"
attr unit bps
vector 237 SmartSubstationTopology.stationB_TSN.eth[8].queue outgoingDataRate:vector ETV
attr interpolationmode linear
attr recordingmode vector
attr source throughput(packetPulled)
attr title "outgoing datarate"
attr unit bps
vector 238 SmartSubstationTopology.stationB_TSN.eth[8].queue incomingDataRate:vector ETV
attr interpolationmode linear
attr recordingmode vector
attr source throughput(packetPushStarted)
attr title "incoming datarate"
attr unit bps
vector 239 SmartSubstationTopology.stationB_TSN.eth[9].queue outgoingDataRate:vector ETV
attr interpolationmode linear
attr recordingmode vector
attr source throughput(packetPulled)
attr title "outgoing datarate"
attr unit bps
vector 240 SmartSubstationTopology.stationB_TSN.eth[9].queue incomingDataRate:vector ETV
attr interpolationmode linear
attr recordingmode vector
attr source throughput(packetPushStarted)
attr title "incoming datarate"
attr unit bps
vector 241 SmartSubstationTopology.stationB_TSN.eth[10].queue outgoingDataRate:vector ETV
attr interpolationmode linear
attr recordingmode vector
attr source throughput(packetPulled)
attr title "outgoing datarate"
attr unit bps
vector 242 SmartSubstationTopology.stationB_TSN.eth[10].queue incomingDataRate:vector ETV
attr interpolationmode linear
attr recordingmode vector
attr source throughput(packetPushStarted)
attr title "incoming datarate"
attr unit bps
vector 243 SmartSubstationTopology.stationB_TSN.eth[11].queue outgoingDataRate:vector ETV
attr interpolationmode linear
attr recordingmode vector
attr source throughput(packetPulled)
attr title "outgoing datarate"
attr unit bps
vector 244 SmartSubstationTopology.stationB_TSN.eth[11].queue incomingDataRate:vector ETV
attr interpolationmode linear
attr recordingmode vector
attr source throughput(packetPushStarted)
attr title "incoming datarate"
attr unit bps
vector 245 SmartSubstationTopology.stationB_TSN.eth[12].queue outgoingDataRate:vector ETV
attr interpolationmode linear
attr recordingmode vector
attr source throughput(packetPulled)
attr title "outgoing datarate"
attr unit bps
vector 246 SmartSubstationTopology.stationB_TSN.eth[12].queue incomingDataRate:vector ETV
attr interpolationmode linear
attr recordingmode vector
attr source throughput(packetPushStarted)
attr title "incoming datarate"
attr unit bps
vector 247 SmartSubstationTopology.stationB_TSN.eth[13].queue outgoingDataRate:vector ETV
attr interpolationmode linear
attr recordingmode vector
attr source throughput(packetPulled)
attr title "outgoing datarate"
attr unit bps
vector 248 SmartSubstationTopology.stationB_TSN.eth[13].queue incomingDataRate:vector ETV
attr interpolationmode linear
attr recordingmode vector
attr source throughput(packetPushStarted)
attr title "incoming datarate"
attr unit bps
vector 249 SmartSubstationTopology.stationB_TSN.eth[14].queue outgoingDataRate:vector ETV
attr interpolationmode linear
attr recordingmode vector
attr source throughput(packetPulled)
attr title "outgoing datarate"
attr unit bps
vector 250 SmartSubstationTopology.stationB_TSN.eth[14].queue incomingDataRate:vector ETV
attr interpolationmode linear
attr recordingmode vector
attr source throughput(packetPushStarted)
attr title "incoming datarate"
attr unit bps
vector 251 SmartSubstationTopology.stationB_TSN.eth[15].queue outgoingDataRate:vector ETV
attr interpolationmode linear
attr recordingmode vector
attr source throughput(packetPulled)
attr title "outgoing datarate"
attr unit bps
vector 252 SmartSubstationTopology.stationB_TSN.eth[15].queue incomingDataRate:vector ETV
attr interpolationmode linear
attr recordingmode vector
attr source throughput(packetPushStarted)
attr title "incoming datarate"
attr unit bps
vector 253 SmartSubstationTopology.stationB_TSN.eth[16].queue outgoingDataRate:vector ETV
attr interpolationmode linear
attr recordingmode vector
attr source throughput(packetPulled)
attr title "outgoing datarate"
attr unit bps
vector 254 SmartSubstationTopology.stationB_TSN.eth[16].queue incomingDataRate:vector ETV
attr interpolationmode linear
attr recordingmode vector
attr source throughput(packetPushStarted)
attr title "incoming datarate"
attr unit bps
vector 255 SmartSubstationTopology.stationB_TSN.eth[17].queue outgoingDataRate:vector ETV
attr interpolationmode linear
attr recordingmode vector
attr source throughput(packetPulled)
attr title "outgoing datarate"
attr unit bps
vector 256 SmartSubstationTopology.stationB_TSN.eth[17].queue incomingDataRate:vector ETV
attr interpolationmode linear
attr recordingmode vector
attr source throughput(packetPushStarted)
attr title "incoming datarate"
attr unit bps
vector 257 SmartSubstationTopology.stationB_TSN.eth[18].queue outgoingDataRate:vector ETV
attr interpolationmode linear
attr recordingmode vector
attr source throughput(packetPulled)
attr title "outgoing datarate"
attr unit bps
vector 258 SmartSubstationTopology.stationB_TSN.eth[18].queue incomingDataRate:vector ETV
attr interpolationmode linear
attr recordingmode vector
attr source throughput(packetPushStarted)
attr title "incoming datarate"
attr unit bps
vector 259 SmartSubstationTopology.stationB_TSN.eth[19].queue outgoingDataRate:vector ETV
attr interpolationmode linear
attr recordingmode vector
attr source throughput(packetPulled)
attr title "outgoing datarate"
attr unit bps
vector 260 SmartSubstationTopology.stationB_TSN.eth[19].queue incomingDataRate:vector ETV
attr interpolationmode linear
attr recordingmode vector
attr source throughput(packetPushStarted)
attr title "incoming datarate"
attr unit bps
vector 261 SmartSubstationTopology.stationB_TSN.eth[20].queue outgoingDataRate:vector ETV
attr interpolationmode linear
attr recordingmode vector
attr source throughput(packetPulled)
attr title "outgoing datarate"
attr unit bps
vector 262 SmartSubstationTopology.stationB_TSN.eth[20].queue incomingDataRate:vector ETV
attr interpolationmode linear
attr recordingmode vector
attr source throughput(packetPushStarted)
attr title "incoming datarate"
attr unit bps
vector 263 SmartSubstationTopology.stationB_MU.eth[0].queue outgoingDataRate:vector ETV
attr interpolationmode linear
attr recordingmode vector
attr source throughput(packetPulled)
attr title "outgoing datarate"
attr unit bps
vector 264 SmartSubstationTopology.stationB_MU.eth[0].queue incomingDataRate:vector ETV
attr interpolationmode linear
attr recordingmode vector
attr source throughput(packetPushStarted)
attr title "incoming datarate"
attr unit bps
[...]
268	36	2.9	0
268	36	3	0
269	36	0.1	0
269	36	0.2	0
269	36	0.3	0
269	36	0.4	0
269	36	0.5	0
269	36	0.6	0
269	36	0.7	0
269	36	0.8	0
269	36	0.9	0
269	36	1	0
269	36	1.1	0
269	36	1.2	0
269	36	1.3	0
269	36	1.4	0
269	36	1.5	0
269	36	1.6	0
269	36	1.7	0
269	36	1.8	0
269	36	1.9	0
269	36	2	0
269	36	2.1	0
269	36	2.2	0
269	36	2.3	0
269	36	2.4	0
269	36	2.5	0
269	36	2.6	0
269	36	2.7	0
269	36	2.8	0
269	36	2.9	0
269	36	3	0
270	36	0.1	0
270	36	0.2	0
270	36	0.3	0
270	36	0.4	0
270	36	0.5	0
270	36	0.6	0
270	36	0.7	0
270	36	0.8	0
270	36	0.9	0
270	36	1	0
270	36	1.1	0
270	36	1.2	0
270	36	1.3	0
270	36	1.4	0
270	36	1.5	0
270	36	1.6	0
270	36	1.7	0
270	36	1.8	0
270	36	1.9	0
270	36	2	0
270	36	2.1	0
270	36	2.2	0
270	36	2.3	0
270	36	2.4	0
270	36	2.5	0
270	36	2.6	0
270	36	2.7	0
270	36	2.8	0
270	36	2.9	0
270	36	3	0
271	36	0.1	0
271	36	0.2	0
271	36	0.3	0
271	36	0.4	0
271	36	0.5	0
271	36	0.6	0
271	36	0.7	0
271	36	0.8	0
271	36	0.9	0
271	36	1	0
271	36	1.1	0
271	36	1.2	0
271	36	1.3	0
271	36	1.4	0
271	36	1.5	0
271	36	1.6	0
271	36	1.7	0
271	36	1.8	0
271	36	1.9	0
271	36	2	0
271	36	2.1	0
271	36	2.2	0
271	36	2.3	0
271	36	2.4	0
271	36	2.5	0
271	36	2.6	0
271	36	2.7	0
271	36	2.8	0
271	36	2.9	0
271	36	3	0
272	36	0.1	0
272	36	0.2	0
272	36	0.3	0
272	36	0.4	0
272	36	0.5	0
272	36	0.6	0
272	36	0.7	0
272	36	0.8	0
272	36	0.9	0
272	36	1	0
272	36	1.1	0
272	36	1.2	0
272	36	1.3	0
272	36	1.4	0
272	36	1.5	0
272	36	1.6	0
272	36	1.7	0
272	36	1.8	0
272	36	1.9	0
272	36	2	0
272	36	2.1	0
272	36	2.2	0
272	36	2.3	0
272	36	2.4	0
272	36	2.5	0
272	36	2.6	0
272	36	2.7	0
272	36	2.8	0
272	36	2.9	0
272	36	3	0
273	36	0.1	0
273	36	0.2	0
273	36	0.3	0
273	36	0.4	0
273	36	0.5	0
273	36	0.6	0
273	36	0.7	0
273	36	0.8	0
273	36	0.9	0
273	36	1	0
273	36	1.1	0
273	36	1.2	0
273	36	1.3	0
273	36	1.4	0
273	36	1.5	0
273	36	1.6	0
273	36	1.7	0
273	36	1.8	0
273	36	1.9	0
273	36	2	0
273	36	2.1	0
273	36	2.2	0
273	36	2.3	0
273	36	2.4	0
273	36	2.5	0
273	36	2.6	0
273	36	2.7	0
273	36	2.8	0
273	36	2.9	0
273	36	3	0
274	36	0.1	0
274	36	0.2	0
274	36	0.3	0
274	36	0.4	0
274	36	0.5	0
274	36	0.6	0
274	36	0.7	0
274	36	0.8	0
274	36	0.9	0
274	36	1	0
274	36	1.1	0
274	36	1.2	0
274	36	1.3	0
274	36	1.4	0
274	36	1.5	0
274	36	1.6	0
274	36	1.7	0
274	36	1.8	0
274	36	1.9	0
274	36	2	0
274	36	2.1	0
274	36	2.2	0
274	36	2.3	0
274	36	2.4	0
274	36	2.5	0
274	36	2.6	0
274	36	2.7	0
274	36	2.8	0
274	36	2.9	0
274	36	3	0
275	36	0.1	0
275	36	0.2	0
275	36	0.3	0
275	36	0.4	0
275	36	0.5	0
275	36	0.6	0
275	36	0.7	0
275	36	0.8	0
275	36	0.9	0
275	36	1	0
275	36	1.1	0
275	36	1.2	0
275	36	1.3	0
275	36	1.4	0
275	36	1.5	0
275	36	1.6	0
275	36	1.7	0
275	36	1.8	0
275	36	1.9	0
275	36	2	0
275	36	2.1	0
275	36	2.2	0
275	36	2.3	0
275	36	2.4	0
275	36	2.5	0
275	36	2.6	0
275	36	2.7	0
275	36	2.8	0
275	36	2.9	0
275	36	3	0
276	36	0.1	0
276	36	0.2	0
276	36	0.3	0
276	36	0.4	0
276	36	0.5	0
276	36	0.6	0
276	36	0.7	0
276	36	0.8	0
276	36	0.9	0
276	36	1	0
276	36	1.1	0
276	36	1.2	0
276	36	1.3	0
276	36	1.4	0
276	36	1.5	0
276	36	1.6	0
276	36	1.7	0
276	36	1.8	0
276	36	1.9	0
276	36	2	0
276	36	2.1	0
276	36	2.2	0
276	36	2.3	0
276	36	2.4	0
276	36	2.5	0
276	36	2.6	0
276	36	2.7	0
276	36	2.8	0
276	36	2.9	0
276	36	3	0
277	36	0.1	0
277	36	0.2	0
277	36	0.3	0
277	36	0.4	0
277	36	0.5	0
277	36	0.6	0
277	36	0.7	0
277	36	0.8	0
277	36	0.9	0
277	36	1	0
277	36	1.1	0
277	36	1.2	0
277	36	1.3	0
277	36	1.4	0
277	36	1.5	0
277	36	1.6	0
277	36	1.7	0
277	36	1.8	0
277	36	1.9	0
277	36	2	0
277	36	2.1	0
277	36	2.2	0
277	36	2.3	0
277	36	2.4	0
277	36	2.5	0
277	36	2.6	0
277	36	2.7	0
277	36	2.8	0
277	36	2.9	0
277	36	3	0
278	36	0.1	0
278	36	0.2	0
278	36	0.3	0
278	36	0.4	0
278	36	0.5	0
278	36	0.6	0
278	36	0.7	0
278	36	0.8	0
278	36	0.9	0
278	36	1	0
278	36	1.1	0
278	36	1.2	0
278	36	1.3	0
278	36	1.4	0
278	36	1.5	0
278	36	1.6	0
278	36	1.7	0
278	36	1.8	0
278	36	1.9	0
278	36	2	0
278	36	2.1	0
278	36	2.2	0
278	36	2.3	0
278	36	2.4	0
278	36	2.5	0
278	36	2.6	0
278	36	2.7	0
278	36	2.8	0
278	36	2.9	0
278	36	3	0
279	36	0.1	0
279	36	0.2	0
279	36	0.3	0
279	36	0.4	0
279	36	0.5	0
279	36	0.6	0
279	36	0.7	0
279	36	0.8	0
279	36	0.9	0
279	36	1	0
279	36	1.1	0
279	36	1.2	0
279	36	1.3	0
279	36	1.4	0
279	36	1.5	0
279	36	1.6	0
279	36	1.7	0
279	36	1.8	0
279	36	1.9	0
279	36	2	0
279	36	2.1	0
279	36	2.2	0
279	36	2.3	0
279	36	2.4	0
279	36	2.5	0
279	36	2.6	0
279	36	2.7	0
279	36	2.8	0
279	36	2.9	0
279	36	3	0
280	36	0.1	0
280	36	0.2	0
280	36	0.3	0
280	36	0.4	0
280	36	0.5	0
280	36	0.6	0
280	36	0.7	0
280	36	0.8	0
280	36	0.9	0
280	36	1	0
280	36	1.1	0
280	36	1.2	0
280	36	1.3	0
280	36	1.4	0
280	36	1.5	0
280	36	1.6	0
280	36	1.7	0
280	36	1.8	0
280	36	1.9	0
280	36	2	0
280	36	2.1	0
280	36	2.2	0
280	36	2.3	0
280	36	2.4	0
280	36	2.5	0
280	36	2.6	0
280	36	2.7	0
280	36	2.8	0
280	36	2.9	0
280	36	3	0
281	36	0.1	0
281	36	0.2	0
281	36	0.3	0
281	36	0.4	0
281	36	0.5	0
281	36	0.6	0
281	36	0.7	0
281	36	0.8	0
281	36	0.9	0
281	36	1	0
281	36	1.1	0
281	36	1.2	0
281	36	1.3	0
281	36	1.4	0
281	36	1.5	0
281	36	1.6	0
281	36	1.7	0
281	36	1.8	0
281	36	1.9	0
281	36	2	0
281	36	2.1	0
281	36	2.2	0
281	36	2.3	0
281	36	2.4	0
281	36	2.5	0
281	36	2.6	0
281	36	2.7	0
281	36	2.8	0
281	36	2.9	0
281	36	3	0
282	36	0.1	0
282	36	0.2	0
282	36	0.3	0
282	36	0.4	0
282	36	0.5	0
282	36	0.6	0
282	36	0.7	0
282	36	0.8	0
282	36	0.9	0
282	36	1	0
282	36	1.1	0
282	36	1.2	0
282	36	1.3	0
282	36	1.4	0
282	36	1.5	0
282	36	1.6	0
282	36	1.7	0
282	36	1.8	0
282	36	1.9	0
282	36	2	0
282	36	2.1	0
282	36	2.2	0
282	36	2.3	0
282	36	2.4	0
282	36	2.5	0
282	36	2.6	0
282	36	2.7	0
282	36	2.8	0
282	36	2.9	0
282	36	3	0
283	36	0.1	0
283	36	0.2	0
283	36	0.3	0
283	36	0.4	0
283	36	0.5	0
283	36	0.6	0
283	36	0.7	0
283	36	0.8	0
283	36	0.9	0
283	36	1	0
283	36	1.1	0
283	36	1.2	0
283	36	1.3	0
283	36	1.4	0
283	36	1.5	0
283	36	1.6	0
283	36	1.7	0
283	36	1.8	0
283	36	1.9	0
283	36	2	0
283	36	2.1	0
283	36	2.2	0
283	36	2.3	0
283	36	2.4	0
283	36	2.5	0
283	36	2.6	0
283	36	2.7	0
283	36	2.8	0
283	36	2.9	0
283	36	3	0
284	36	0.1	0
284	36	0.2	0
284	36	0.3	0
284	36	0.4	0
284	36	0.5	0
284	36	0.6	0
284	36	0.7	0
284	36	0.8	0
284	36	0.9	0
284	36	1	0
284	36	1.1	0
284	36	1.2	0
284	36	1.3	0
284	36	1.4	0
284	36	1.5	0
284	36	1.6	0
284	36	1.7	0
284	36	1.8	0
284	36	1.9	0
284	36	2	0
284	36	2.1	0
284	36	2.2	0
284	36	2.3	0
284	36	2.4	0
284	36	2.5	0
284	36	2.6	0
284	36	2.7	0
284	36	2.8	0
284	36	2.9	0
284	36	3	0
285	36	0.1	0
285	36	0.2	0
285	36	0.3	0
285	36	0.4	0
285	36	0.5	0
285	36	0.6	0
285	36	0.7	0
285	36	0.8	0
285	36	0.9	0
285	36	1	0
285	36	1.1	0
285	36	1.2	0
285	36	1.3	0
285	36	1.4	0
285	36	1.5	0
285	36	1.6	0
285	36	1.7	0
285	36	1.8	0
285	36	1.9	0
285	36	2	0
285	36	2.1	0
285	36	2.2	0
285	36	2.3	0
285	36	2.4	0
285	36	2.5	0
285	36	2.6	0
285	36	2.7	0
285	36	2.8	0
285	36	2.9	0
285	36	3	0
286	36	0.1	0
286	36	0.2	0
286	36	0.3	0
286	36	0.4	0
286	36	0.5	0
286	36	0.6	0
286	36	0.7	0
286	36	0.8	0
286	36	0.9	0
286	36	1	0
286	36	1.1	0
286	36	1.2	0
286	36	1.3	0
286	36	1.4	0
286	36	1.5	0
286	36	1.6	0
286	36	1.7	0
286	36	1.8	0
286	36	1.9	0
286	36	2	0
286	36	2.1	0
286	36	2.2	0
286	36	2.3	0
286	36	2.4	0
286	36	2.5	0
286	36	2.6	0
286	36	2.7	0
286	36	2.8	0
286	36	2.9	0
286	36	3	0
287	36	0.1	0
287	36	0.2	0
287	36	0.3	0
287	36	0.4	0
287	36	0.5	0
287	36	0.6	0
287	36	0.7	0
287	36	0.8	0
287	36	0.9	0
287	36	1	0
287	36	1.1	0
287	36	1.2	0
287	36	1.3	0
287	36	1.4	0
287	36	1.5	0
287	36	1.6	0
287	36	1.7	0
287	36	1.8	0
287	36	1.9	0
287	36	2	0
287	36	2.1	0
287	36	2.2	0
287	36	2.3	0
287	36	2.4	0
287	36	2.5	0
287	36	2.6	0
287	36	2.7	0
287	36	2.8	0
287	36	2.9	0
287	36	3	0
288	36	0.1	0
288	36	0.2	0
288	36	0.3	0
288	36	0.4	0
288	36	0.5	0
288	36	0.6	0
288	36	0.7	0
288	36	0.8	0
288	36	0.9	0
288	36	1	0
288	36	1.1	0
288	36	1.2	0
288	36	1.3	0
288	36	1.4	0
288	36	1.5	0
288	36	1.6	0
288	36	1.7	0
288	36	1.8	0
288	36	1.9	0
288	36	2	0
288	36	2.1	0
288	36	2.2	0
288	36	2.3	0
288	36	2.4	0
288	36	2.5	0
288	36	2.6	0
288	36	2.7	0
288	36	2.8	0
288	36	2.9	0
288	36	3	0
289	36	0.1	0
289	36	0.2	0
289	36	0.3	0
289	36	0.4	0
289	36	0.5	0
289	36	0.6	0
289	36	0.7	0
289	36	0.8	0
289	36	0.9	0
289	36	1	0
289	36	1.1	0
289	36	1.2	0
289	36	1.3	0
289	36	1.4	0
289	36	1.5	0
289	36	1.6	0
289	36	1.7	0
289	36	1.8	0
289	36	1.9	0
289	36	2	0
289	36	2.1	0
289	36	2.2	0
289	36	2.3	0
289	36	2.4	0
289	36	2.5	0
289	36	2.6	0
289	36	2.7	0
289	36	2.8	0
289	36	2.9	0
289	36	3	0
290	36	0.1	0
290	36	0.2	0
290	36	0.3	0
290	36	0.4	0
290	36	0.5	0
290	36	0.6	0
290	36	0.7	0
290	36	0.8	0
290	36	0.9	0
290	36	1	0
290	36	1.1	0
290	36	1.2	0
290	36	1.3	0
290	36	1.4	0
290	36	1.5	0
290	36	1.6	0
290	36	1.7	0
290	36	1.8	0
290	36	1.9	0
290	36	2	0
290	36	2.1	0
290	36	2.2	0
290	36	2.3	0
290	36	2.4	0
290	36	2.5	0
290	36	2.6	0
290	36	2.7	0
290	36	2.8	0
290	36	2.9	0
290	36	3	0
291	36	0.1	0
291	36	0.2	0
291	36	0.3	0
291	36	0.4	0
291	36	0.5	0
291	36	0.6	0
291	36	0.7	0
291	36	0.8	0
291	36	0.9	0
291	36	1	0
291	36	1.1	0
291	36	1.2	0
291	36	1.3	0
291	36	1.4	0
291	36	1.5	0
291	36	1.6	0
291	36	1.7	0
291	36	1.8	0
291	36	1.9	0
291	36	2	0
291	36	2.1	0
291	36	2.2	0
291	36	2.3	0
291	36	2.4	0
291	36	2.5	0
291	36	2.6	0
291	36	2.7	0
291	36	2.8	0
291	36	2.9	0
291	36	3	0
292	36	0.1	0
292	36	0.2	0
292	36	0.3	0
292	36	0.4	0
292	36	0.5	0
292	36	0.6	0
292	36	0.7	0
292	36	0.8	0
292	36	0.9	0
292	36	1	0
292	36	1.1	0
292	36	1.2	0
292	36	1.3	0
292	36	1.4	0
292	36	1.5	0
292	36	1.6	0
292	36	1.7	0
292	36	1.8	0
292	36	1.9	0
292	36	2	0
292	36	2.1	0
292	36	2.2	0
292	36	2.3	0
292	36	2.4	0
292	36	2.5	0
292	36	2.6	0
292	36	2.7	0
292	36	2.8	0
292	36	2.9	0
292	36	3	0
293	36	0.1	0
293	36	0.2	0
293	36	0.3	0
293	36	0.4	0
293	36	0.5	0
293	36	0.6	0
293	36	0.7	0
293	36	0.8	0
293	36	0.9	0
293	36	1	0
293	36	1.1	0
293	36	1.2	0
293	36	1.3	0
293	36	1.4	0
293	36	1.5	0
293	36	1.6	0
293	36	1.7	0
293	36	1.8	0
293	36	1.9	0
293	36	2	0
293	36	2.1	0
293	36	2.2	0
293	36	2.3	0
293	36	2.4	0
293	36	2.5	0
293	36	2.6	0
293	36	2.7	0
293	36	2.8	0
293	36	2.9	0
293	36	3	0
294	36	0.1	0
294	36	0.2	0
294	36	0.3	0
294	36	0.4	0
294	36	0.5	0
294	36	0.6	0
294	36	0.7	0
294	36	0.8	0
294	36	0.9	0
294	36	1	0
294	36	1.1	0
294	36	1.2	0
294	36	1.3	0
294	36	1.4	0
294	36	1.5	0
294	36	1.6	0
294	36	1.7	0
294	36	1.8	0
294	36	1.9	0
294	36	2	0
294	36	2.1	0
294	36	2.2	0
294	36	2.3	0
294	36	2.4	0
294	36	2.5	0
294	36	2.6	0
294	36	2.7	0
294	36	2.8	0
294	36	2.9	0
294	36	3	0
295	36	0.1	0
295	36	0.2	0
295	36	0.3	0
295	36	0.4	0
295	36	0.5	0
295	36	0.6	0
295	36	0.7	0
295	36	0.8	0
295	36	0.9	0
295	36	1	0
295	36	1.1	0
295	36	1.2	0
295	36	1.3	0
295	36	1.4	0
295	36	1.5	0
295	36	1.6	0
295	36	1.7	0
295	36	1.8	0
295	36	1.9	0
295	36	2	0
295	36	2.1	0
295	36	2.2	0
295	36	2.3	0
295	36	2.4	0
295	36	2.5	0
295	36	2.6	0
295	36	2.7	0
295	36	2.8	0
295	36	2.9	0
295	36	3	0
296	36	0.1	0
296	36	0.2	0
296	36	0.3	0
296	36	0.4	0
296	36	0.5	0
296	36	0.6	0
296	36	0.7	0
296	36	0.8	0
296	36	0.9	0
296	36	1	0
296	36	1.1	0
296	36	1.2	0
296	36	1.3	0
296	36	1.4	0
296	36	1.5	0
296	36	1.6	0
296	36	1.7	0
296	36	1.8	0
296	36	1.9	0
296	36	2	0
296	36	2.1	0
296	36	2.2	0
296	36	2.3	0
296	36	2.4	0
296	36	2.5	0
296	36	2.6	0
296	36	2.7	0
296	36	2.8	0
296	36	2.9	0
296	36	3	0
297	36	0.1	0
297	36	0.2	0
297	36	0.3	0
297	36	0.4	0
297	36	0.5	0
297	36	0.6	0
297	36	0.7	0
297	36	0.8	0
297	36	0.9	0
297	36	1	0
297	36	1.1	0
297	36	1.2	0
297	36	1.3	0
297	36	1.4	0
297	36	1.5	0
297	36	1.6	0
297	36	1.7	0
297	36	1.8	0
297	36	1.9	0
297	36	2	0
297	36	2.1	0
297	36	2.2	0
297	36	2.3	0
297	36	2.4	0
297	36	2.5	0
297	36	2.6	0
297	36	2.7	0
297	36	2.8	0
297	36	2.9	0
297	36	3	0
298	36	0.1	0
298	36	0.2	0
298	36	0.3	0
298	36	0.4	0
298	36	0.5	0
298	36	0.6	0
298	36	0.7	0
298	36	0.8	0
298	36	0.9	0
298	36	1	0
298	36	1.1	0
298	36	1.2	0
298	36	1.3	0
298	36	1.4	0
298	36	1.5	0
298	36	1.6	0
298	36	1.7	0
298	36	1.8	0
298	36	1.9	0
298	36	2	0
298	36	2.1	0
298	36	2.2	0
298	36	2.3	0
298	36	2.4	0
298	36	2.5	0
298	36	2.6	0
298	36	2.7	0
298	36	2.8	0
298	36	2.9	0
298	36	3	0
299	36	0.1	0
299	36	0.2	0
299	36	0.3	0
299	36	0.4	0
299	36	0.5	0
299	36	0.6	0
299	36	0.7	0
299	36	0.8	0
299	36	0.9	0
299	36	1	0
299	36	1.1	0
299	36	1.2	0
299	36	1.3	0
299	36	1.4	0
299	36	1.5	0
299	36	1.6	0
299	36	1.7	0
299	36	1.8	0
299	36	1.9	0
299	36	2	0
299	36	2.1	0
299	36	2.2	0
299	36	2.3	0
299	36	2.4	0
299	36	2.5	0
299	36	2.6	0
299	36	2.7	0
299	36	2.8	0
299	36	2.9	0
299	36	3	0
300	36	0.1	0
300	36	0.2	0
300	36	0.3	0
300	36	0.4	0
300	36	0.5	0
300	36	0.6	0
300	36	0.7	0
300	36	0.8	0
300	36	0.9	0
300	36	1	0
300	36	1.1	0
300	36	1.2	0
300	36	1.3	0
300	36	1.4	0
300	36	1.5	0
300	36	1.6	0
300	36	1.7	0
300	36	1.8	0
300	36	1.9	0
300	36	2	0
300	36	2.1	0
300	36	2.2	0
300	36	2.3	0
300	36	2.4	0
300	36	2.5	0
300	36	2.6	0
300	36	2.7	0
300	36	2.8	0
300	36	2.9	0
300	36	3	0
301	36	0.1	0
301	36	0.2	0
301	36	0.3	0
301	36	0.4	0
301	36	0.5	0
301	36	0.6	0
301	36	0.7	0
301	36	0.8	0
301	36	0.9	0
301	36	1	0
301	36	1.1	0
301	36	1.2	0
301	36	1.3	0
301	36	1.4	0
301	36	1.5	0
301	36	1.6	0
301	36	1.7	0
301	36	1.8	0
301	36	1.9	0
301	36	2	0
301	36	2.1	0
301	36	2.2	0
301	36	2.3	0
301	36	2.4	0
301	36	2.5	0
301	36	2.6	0
301	36	2.7	0
301	36	2.8	0
301	36	2.9	0
301	36	3	0
302	36	0.1	0
302	36	0.2	0
302	36	0.3	0
302	36	0.4	0
302	36	0.5	0
302	36	0.6	0
302	36	0.7	0
302	36	0.8	0
302	36	0.9	0
302	36	1	0
302	36	1.1	0
302	36	1.2	0
302	36	1.3	0
302	36	1.4	0
302	36	1.5	0
302	36	1.6	0
302	36	1.7	0
302	36	1.8	0
302	36	1.9	0
302	36	2	0
302	36	2.1	0
302	36	2.2	0
302	36	2.3	0
302	36	2.4	0
302	36	2.5	0
302	36	2.6	0
302	36	2.7	0
302	36	2.8	0
302	36	2.9	0
302	36	3	0
303	36	0.1	0
303	36	0.2	0
303	36	0.3	0
303	36	0.4	0
303	36	0.5	0
303	36	0.6	0
303	36	0.7	0
303	36	0.8	0
303	36	0.9	0
303	36	1	0
303	36	1.1	0
303	36	1.2	0
303	36	1.3	0
303	36	1.4	0
303	36	1.5	0
303	36	1.6	0
303	36	1.7	0
303	36	1.8	0
303	36	1.9	0
303	36	2	0
303	36	2.1	0
303	36	2.2	0
303	36	2.3	0
303	36	2.4	0
303	36	2.5	0
303	36	2.6	0
303	36	2.7	0
303	36	2.8	0
303	36	2.9	0
303	36	3	0
304	36	0.1	0
304	36	0.2	0
304	36	0.3	0
304	36	0.4	0
304	36	0.5	0
304	36	0.6	0
304	36	0.7	0
304	36	0.8	0
304	36	0.9	0
304	36	1	0
304	36	1.1	0
304	36	1.2	0
304	36	1.3	0
304	36	1.4	0
304	36	1.5	0
304	36	1.6	0
304	36	1.7	0
304	36	1.8	0
304	36	1.9	0
304	36	2	0
304	36	2.1	0
304	36	2.2	0
304	36	2.3	0
304	36	2.4	0
304	36	2.5	0
304	36	2.6	0
304	36	2.7	0
304	36	2.8	0
304	36	2.9	0
304	36	3	0
305	36	0.1	0
305	36	0.2	0
305	36	0.3	0
305	36	0.4	0
305	36	0.5	0
305	36	0.6	0
305	36	0.7	0
305	36	0.8	0
305	36	0.9	0
305	36	1	0
305	36	1.1	0
305	36	1.2	0
305	36	1.3	0
305	36	1.4	0
305	36	1.5	0
305	36	1.6	0
305	36	1.7	0
305	36	1.8	0
305	36	1.9	0
305	36	2	0
305	36	2.1	0
305	36	2.2	0
305	36	2.3	0
305	36	2.4	0
305	36	2.5	0
305	36	2.6	0
305	36	2.7	0
305	36	2.8	0
305	36	2.9	0
305	36	3	0
306	36	0.1	0
306	36	0.2	0
306	36	0.3	0
306	36	0.4	0
306	36	0.5	0
306	36	0.6	0
306	36	0.7	0
306	36	0.8	0
306	36	0.9	0
306	36	1	0
306	36	1.1	0
306	36	1.2	0
306	36	1.3	0
306	36	1.4	0
306	36	1.5	0
306	36	1.6	0
306	36	1.7	0
306	36	1.8	0
306	36	1.9	0
306	36	2	0
306	36	2.1	0
306	36	2.2	0
306	36	2.3	0
306	36	2.4	0
306	36	2.5	0
306	36	2.6	0
306	36	2.7	0
306	36	2.8	0
306	36	2.9	0
306	36	3	0
307	36	0.1	0
307	36	0.2	0
307	36	0.3	0
307	36	0.4	0
307	36	0.5	0
307	36	0.6	0
307	36	0.7	0
307	36	0.8	0
307	36	0.9	0
307	36	1	0
307	36	1.1	0
307	36	1.2	0
307	36	1.3	0
307	36	1.4	0
307	36	1.5	0
307	36	1.6	0
307	36	1.7	0
307	36	1.8	0
307	36	1.9	0
307	36	2	0
307	36	2.1	0
307	36	2.2	0
307	36	2.3	0
307	36	2.4	0
307	36	2.5	0
307	36	2.6	0
307	36	2.7	0
307	36	2.8	0
307	36	2.9	0
307	36	3	0
308	36	0.1	0
308	36	0.2	0
308	36	0.3	0
308	36	0.4	0
308	36	0.5	0
308	36	0.6	0
308	36	0.7	0
308	36	0.8	0
308	36	0.9	0
308	36	1	0
308	36	1.1	0
308	36	1.2	0
308	36	1.3	0
308	36	1.4	0
308	36	1.5	0
308	36	1.6	0
308	36	1.7	0
308	36	1.8	0
308	36	1.9	0
308	36	2	0
308	36	2.1	0
308	36	2.2	0
308	36	2.3	0
308	36	2.4	0
308	36	2.5	0
308	36	2.6	0
308	36	2.7	0
308	36	2.8	0
308	36	2.9	0
308	36	3	0
309	36	0.1	0
309	36	0.2	0
309	36	0.3	0
309	36	0.4	0
309	36	0.5	0
309	36	0.6	0
309	36	0.7	0
309	36	0.8	0
309	36	0.9	0
309	36	1	0
309	36	1.1	0
309	36	1.2	0
309	36	1.3	0
309	36	1.4	0
309	36	1.5	0
309	36	1.6	0
309	36	1.7	0
309	36	1.8	0
309	36	1.9	0
309	36	2	0
309	36	2.1	0
309	36	2.2	0
309	36	2.3	0
309	36	2.4	0
309	36	2.5	0
309	36	2.6	0
309	36	2.7	0
309	36	2.8	0
309	36	2.9	0
309	36	3	0
310	36	0.1	0
310	36	0.2	0
310	36	0.3	0
310	36	0.4	0
310	36	0.5	0
310	36	0.6	0
310	36	0.7	0
310	36	0.8	0
310	36	0.9	0
310	36	1	0
310	36	1.1	0
310	36	1.2	0
310	36	1.3	0
310	36	1.4	0
310	36	1.5	0
310	36	1.6	0
310	36	1.7	0
310	36	1.8	0
310	36	1.9	0
310	36	2	0
310	36	2.1	0
310	36	2.2	0
310	36	2.3	0
310	36	2.4	0
310	36	2.5	0
310	36	2.6	0
310	36	2.7	0
310	36	2.8	0
310	36	2.9	0
310	36	3	0
311	36	0.1	0
311	36	0.2	0
311	36	0.3	0
311	36	0.4	0
311	36	0.5	0
311	36	0.6	0
311	36	0.7	0
311	36	0.8	0
311	36	0.9	0
311	36	1	0
311	36	1.1	0
311	36	1.2	0
311	36	1.3	0
311	36	1.4	0
311	36	1.5	0
311	36	1.6	0
311	36	1.7	0
311	36	1.8	0
311	36	1.9	0
311	36	2	0
311	36	2.1	0
311	36	2.2	0
311	36	2.3	0
311	36	2.4	0
311	36	2.5	0
311	36	2.6	0
311	36	2.7	0
311	36	2.8	0
311	36	2.9	0
311	36	3	0
312	36	0.1	0
312	36	0.2	0
312	36	0.3	0
312	36	0.4	0
312	36	0.5	0
312	36	0.6	0
312	36	0.7	0
312	36	0.8	0
312	36	0.9	0
312	36	1	0
312	36	1.1	0
312	36	1.2	0
312	36	1.3	0
312	36	1.4	0
312	36	1.5	0
312	36	1.6	0
312	36	1.7	0
312	36	1.8	0
312	36	1.9	0
312	36	2	0
312	36	2.1	0
312	36	2.2	0
312	36	2.3	0
312	36	2.4	0
312	36	2.5	0
312	36	2.6	0
312	36	2.7	0
312	36	2.8	0
312	36	2.9	0
312	36	3	0
313	36	0.1	0
313	36	0.2	0
313	36	0.3	0
313	36	0.4	0
313	36	0.5	0
313	36	0.6	0
313	36	0.7	0
313	36	0.8	0
313	36	0.9	0
313	36	1	0
313	36	1.1	0
313	36	1.2	0
313	36	1.3	0
313	36	1.4	0
313	36	1.5	0
313	36	1.6	0
313	36	1.7	0
313	36	1.8	0
313	36	1.9	0
313	36	2	0
313	36	2.1	0
313	36	2.2	0
313	36	2.3	0
313	36	2.4	0
313	36	2.5	0
313	36	2.6	0
313	36	2.7	0
313	36	2.8	0
313	36	2.9	0
313	36	3	0
314	36	0.1	0
314	36	0.2	0
314	36	0.3	0
314	36	0.4	0
314	36	0.5	0
314	36	0.6	0
314	36	0.7	0
314	36	0.8	0
314	36	0.9	0
314	36	1	0
314	36	1.1	0
314	36	1.2	0
314	36	1.3	0
314	36	1.4	0
314	36	1.5	0
314	36	1.6	0
314	36	1.7	0
314	36	1.8	0
314	36	1.9	0
314	36	2	0
314	36	2.1	0
314	36	2.2	0
314	36	2.3	0
314	36	2.4	0
314	36	2.5	0
314	36	2.6	0
314	36	2.7	0
314	36	2.8	0
314	36	2.9	0
314	36	3	0
315	36	0.1	0
315	36	0.2	0
315	36	0.3	0
315	36	0.4	0
315	36	0.5	0
315	36	0.6	0
315	36	0.7	0
315	36	0.8	0
315	36	0.9	0
315	36	1	0
315	36	1.1	0
315	36	1.2	0
315	36	1.3	0
315	36	1.4	0
315	36	1.5	0
315	36	1.6	0
315	36	1.7	0
315	36	1.8	0
315	36	1.9	0
315	36	2	0
315	36	2.1	0
315	36	2.2	0
315	36	2.3	0
315	36	2.4	0
315	36	2.5	0
315	36	2.6	0
315	36	2.7	0
315	36	2.8	0
315	36	2.9	0
315	36	3	0
316	36	0.1	0
316	36	0.2	0
316	36	0.3	0
316	36	0.4	0
316	36	0.5	0
316	36	0.6	0
316	36	0.7	0
316	36	0.8	0
316	36	0.9	0
316	36	1	0
316	36	1.1	0
316	36	1.2	0
316	36	1.3	0
316	36	1.4	0
316	36	1.5	0
316	36	1.6	0
316	36	1.7	0
316	36	1.8	0
316	36	1.9	0
316	36	2	0
316	36	2.1	0
316	36	2.2	0
316	36	2.3	0
316	36	2.4	0
316	36	2.5	0
316	36	2.6	0
316	36	2.7	0
316	36	2.8	0
316	36	2.9	0
316	36	3	0
317	36	0.1	0
317	36	0.2	0
317	36	0.3	0
317	36	0.4	0
317	36	0.5	0
317	36	0.6	0
317	36	0.7	0
317	36	0.8	0
317	36	0.9	0
317	36	1	0
317	36	1.1	0
317	36	1.2	0
317	36	1.3	0
317	36	1.4	0
317	36	1.5	0
317	36	1.6	0
317	36	1.7	0
317	36	1.8	0
317	36	1.9	0
317	36	2	0
317	36	2.1	0
317	36	2.2	0
317	36	2.3	0
317	36	2.4	0
317	36	2.5	0
317	36	2.6	0
317	36	2.7	0
317	36	2.8	0
317	36	2.9	0
317	36	3	0
318	36	0.1	0
318	36	0.2	0
318	36	0.3	0
318	36	0.4	0
318	36	0.5	0
318	36	0.6	0
318	36	0.7	0
318	36	0.8	0
318	36	0.9	0
318	36	1	0
318	36	1.1	0
318	36	1.2	0
318	36	1.3	0
318	36	1.4	0
318	36	1.5	0
318	36	1.6	0
318	36	1.7	0
318	36	1.8	0
318	36	1.9	0
318	36	2	0
318	36	2.1	0
318	36	2.2	0
318	36	2.3	0
318	36	2.4	0
318	36	2.5	0
318	36	2.6	0
318	36	2.7	0
318	36	2.8	0
318	36	2.9	0
318	36	3	0
319	36	0.1	0
319	36	0.2	0
319	36	0.3	0
319	36	0.4	0
319	36	0.5	0
319	36	0.6	0
319	36	0.7	0
319	36	0.8	0
319	36	0.9	0
319	36	1	0
319	36	1.1	0
319	36	1.2	0
319	36	1.3	0
319	36	1.4	0
319	36	1.5	0
319	36	1.6	0
319	36	1.7	0
319	36	1.8	0
319	36	1.9	0
319	36	2	0
319	36	2.1	0
319	36	2.2	0
319	36	2.3	0
319	36	2.4	0
319	36	2.5	0
319	36	2.6	0
319	36	2.7	0
319	36	2.8	0
319	36	2.9	0
319	36	3	0
320	36	0.1	0
320	36	0.2	0
320	36	0.3	0
320	36	0.4	0
320	36	0.5	0
320	36	0.6	0
320	36	0.7	0
320	36	0.8	0
320	36	0.9	0
320	36	1	0
320	36	1.1	0
320	36	1.2	0
320	36	1.3	0
320	36	1.4	0
320	36	1.5	0
320	36	1.6	0
320	36	1.7	0
320	36	1.8	0
320	36	1.9	0
320	36	2	0
320	36	2.1	0
320	36	2.2	0
320	36	2.3	0
320	36	2.4	0
320	36	2.5	0
320	36	2.6	0
320	36	2.7	0
320	36	2.8	0
320	36	2.9	0
320	36	3	0

