version 3
run General-0-20260128-13:49:07-20628
attr configname General
attr datetime 20260128-13:49:07
attr datetimef 20260128-134907
attr experiment General
attr inifile demo.ini
attr iterationvars ""
attr iterationvarsd ""
attr iterationvarsf ""
attr measurement ""
attr network SmartSubstationTopology
attr processid 20628
attr repetition 0
attr replication #0
attr resultdir results
attr runnumber 0
attr seedset 0
config image-path ../inet4.5/images
config network SmartSubstationTopology
config sim-time-limit 10s
config ned-path .;src;../inet4.5/src
config *.configurator.typename IPv4NetworkConfigurator
config **.hasIpv4 true
config **.hasUdp true
config **.hasTcp false
config **.eth[*].datarate 10Gbps
config **.ppp[*].datarate 10Gbps
config *.MonitoringCenter_*.eth[*].datarate 10Gbps
config *.borderGateway1.hasIpv4 true
config *.borderGateway1.forwarding true
config *.borderGateway2.hasIpv4 true
config *.borderGateway2.forwarding true
config *.otnDevice.hasIpv4 true
config *.otnDevice.forwarding true
config **.eth[*].typename EthernetInterface
config **.ppp[*].typename PppInterface
config *.MU_A.numApps 1
config *.MU_A.app[0].typename src.apps.SvGeneratorApp
config *.MU_A.app[0].localDestAddress "\"Protection_A\""
config *.MU_A.app[0].localDestPort 2000
config *.MU_A.app[0].remoteDestAddress "\"Protection_B\""
config *.MU_A.app[0].remoteDestPort 2001
config *.MU_A.app[0].messageLength 140B
config *.MU_A.app[0].sendInterval 250us
config *.MU_A.app[0].currentBase 100A
config *.MU_A.app[0].noiseStd 1A
config *.MU_A.app[0].faultEnabled true
config *.MU_A.app[0].faultStart 2s
config *.MU_A.app[0].faultDuration 30ms
config *.MU_A.app[0].faultDelta 200A
config *.MU_A.app[0].dscp 56
config *.Protection_A.numApps 1
config *.Protection_A.app[0].typename src.apps.DifferentialProtectionApp
config *.Protection_A.app[0].localPort 2000
config *.Protection_A.app[0].remotePort 2001
config *.Protection_A.app[0].threshold 5A
config *.Protection_A.app[0].gooseDestLocal "\"IT_A\""
config *.Protection_A.app[0].gooseDestRemote "\"IT_B\""
config *.Protection_A.app[0].goosePort 3000
config *.Protection_A.app[0].gooseDscp 48
config *.Protection_A.app[0].recordStats true
config *.IT_A.numApps 1
config *.IT_A.app[0].typename UdpSink
config *.IT_A.app[0].localPort 3000
config *.IT_A.app[0].verbose true
config *.IT_B.numApps 1
config *.IT_B.app[0].typename UdpSink
config *.IT_B.app[0].localPort 3000
config *.IT_B.app[0].verbose true
config *.MU_B.numApps 1
config *.MU_B.app[0].typename src.apps.SvGeneratorApp
config *.MU_B.app[0].localDestAddress "\"Protection_B\""
config *.MU_B.app[0].localDestPort 2000
config *.MU_B.app[0].remoteDestAddress "\"Protection_A\""
config *.MU_B.app[0].remoteDestPort 2001
config *.MU_B.app[0].messageLength 140B
config *.MU_B.app[0].sendInterval 250us
config *.MU_B.app[0].currentBase 100A
config *.MU_B.app[0].noiseStd 1A
config *.MU_B.app[0].faultEnabled true
config *.MU_B.app[0].faultStart 2s
config *.MU_B.app[0].faultDuration 30ms
config *.MU_B.app[0].faultDelta 200A
config *.MU_B.app[0].dscp 56
config *.BusProtection_A.numApps 1
config *.BusProtection_A.app[0].typename UdpSink
config *.BusProtection_A.app[0].localPort 5000
config *.BusProtection_A.app[0].verbose true
config *.Protection_B.numApps 1
config *.Protection_B.app[0].typename src.apps.DifferentialProtectionApp
config *.Protection_B.app[0].localPort 2000
config *.Protection_B.app[0].remotePort 2001
config *.Protection_B.app[0].threshold 5A
config *.Protection_B.app[0].gooseDestLocal "\"IT_B\""
config *.Protection_B.app[0].gooseDestRemote "\"IT_A\""
config *.Protection_B.app[0].goosePort 3000
config *.Protection_B.app[0].gooseDscp 48
config *.Protection_B.app[0].recordStats true
config *.BusProtection_MU1_A.numApps 1
config *.BusProtection_MU1_A.app[0].typename UdpBasicApp
config *.BusProtection_MU1_A.app[0].localPort 5101
config *.BusProtection_MU1_A.app[0].destAddresses "\"BusProtection_A\""
config *.BusProtection_MU1_A.app[0].destPort 5000
config *.BusProtection_MU1_A.app[0].messageLength 140B
config *.BusProtection_MU1_A.app[0].sendInterval 250us
config *.BusProtection_MU1_A.app[0].startTime 1ms
config *.BusProtection_MU1_A.app[0].packetName "\"Bus_SV_1\""
config *.BusProtection_MU1_A.app[0].dscp 56
config *.BusProtection_MU1_A.app[0].verbose true
config *.BusProtection_MU2_A.numApps 1
config *.BusProtection_MU2_A.app[0].typename UdpBasicApp
config *.BusProtection_MU2_A.app[0].localPort 5102
config *.BusProtection_MU2_A.app[0].destAddresses "\"BusProtection_A\""
config *.BusProtection_MU2_A.app[0].destPort 5000
config *.BusProtection_MU2_A.app[0].messageLength 140B
config *.BusProtection_MU2_A.app[0].sendInterval 250us
config *.BusProtection_MU2_A.app[0].startTime 2ms
config *.BusProtection_MU2_A.app[0].packetName "\"Bus_SV_2\""
config *.BusProtection_MU2_A.app[0].dscp 56
config *.BusProtection_MU2_A.app[0].verbose true
config *.BusProtection_MU3_A.numApps 1
config *.BusProtection_MU3_A.app[0].typename UdpBasicApp
config *.BusProtection_MU3_A.app[0].localPort 5103
config *.BusProtection_MU3_A.app[0].destAddresses "\"BusProtection_A\""
config *.BusProtection_MU3_A.app[0].destPort 5000
config *.BusProtection_MU3_A.app[0].messageLength 140B
config *.BusProtection_MU3_A.app[0].sendInterval 250us
config *.BusProtection_MU3_A.app[0].startTime 3ms
config *.BusProtection_MU3_A.app[0].packetName "\"Bus_SV_3\""
config *.BusProtection_MU3_A.app[0].dscp 56
config *.BusProtection_MU3_A.app[0].verbose true
config *.BusProtection_B.numApps 1
config *.BusProtection_B.app[0].typename UdpSink
config *.BusProtection_B.app[0].localPort 5000
config *.BusProtection_B.app[0].verbose true
config *.BusProtection_MU1_B.numApps 1
config *.BusProtection_MU1_B.app[0].typename UdpBasicApp
config *.BusProtection_MU1_B.app[0].localPort 5101
config *.BusProtection_MU1_B.app[0].destAddresses "\"BusProtection_B\""
config *.BusProtection_MU1_B.app[0].destPort 5000
config *.BusProtection_MU1_B.app[0].messageLength 140B
config *.BusProtection_MU1_B.app[0].sendInterval 250us
config *.BusProtection_MU1_B.app[0].startTime 4ms
config *.BusProtection_MU1_B.app[0].packetName "\"Bus_SV_1\""
config *.BusProtection_MU1_B.app[0].dscp 56
config *.BusProtection_MU1_B.app[0].verbose true
config *.BusProtection_MU2_B.numApps 1
config *.BusProtection_MU2_B.app[0].typename UdpBasicApp
config *.BusProtection_MU2_B.app[0].localPort 5102
config *.BusProtection_MU2_B.app[0].destAddresses "\"BusProtection_B\""
config *.BusProtection_MU2_B.app[0].destPort 5000
config *.BusProtection_MU2_B.app[0].messageLength 140B
config *.BusProtection_MU2_B.app[0].sendInterval 250us
config *.BusProtection_MU2_B.app[0].startTime 5ms
config *.BusProtection_MU2_B.app[0].packetName "\"Bus_SV_2\""
config *.BusProtection_MU2_B.app[0].dscp 56
config *.BusProtection_MU2_B.app[0].verbose true
config *.BusProtection_MU3_B.numApps 1
config *.BusProtection_MU3_B.app[0].typename UdpBasicApp
config *.BusProtection_MU3_B.app[0].localPort 5103
config *.BusProtection_MU3_B.app[0].destAddresses "\"BusProtection_B\""
config *.BusProtection_MU3_B.app[0].destPort 5000
config *.BusProtection_MU3_B.app[0].messageLength 140B
config *.BusProtection_MU3_B.app[0].sendInterval 250us
config *.BusProtection_MU3_B.app[0].startTime 6ms
config *.BusProtection_MU3_B.app[0].packetName "\"Bus_SV_3\""
config *.BusProtection_MU3_B.app[0].dscp 56
config *.BusProtection_MU3_B.app[0].verbose true
config *.Camera*_A.numApps 2
config *.Camera*_A.app[0].typename UdpBasicApp
config *.Camera*_A.app[0].destAddresses "\"MonitoringCenter_A\""
config *.Camera*_A.app[0].destPort 6000
config *.Camera*_A.app[0].messageLength 1500B
config *.Camera*_A.app[0].sendInterval 33.33ms
config *.Camera*_A.app[0].startTime "uniform(0s, 1s)"
config *.Camera*_A.app[0].packetName "\"Video_Stream\""
config *.Camera*_A.app[0].dscp 0
config *.Camera*_A.app[0].verbose true
config *.Camera*_A.app[1].typename UdpBasicApp
config *.Camera*_A.app[1].localPort 6100
config *.Camera*_A.app[1].destAddresses "\"MonitoringCenter_Main\""
config *.Camera*_A.app[1].destPort 6000
config *.Camera*_A.app[1].messageLength 1500B
config *.Camera*_A.app[1].sendInterval 33.33ms
config *.Camera*_A.app[1].startTime "uniform(0s, 1s)"
config *.Camera*_A.app[1].packetName "\"Video_Stream_Main\""
config *.Camera*_A.app[1].dscp 0
config *.Camera*_A.app[1].verbose true
config *.Camera*_B.numApps 2
config *.Camera*_B.app[0].typename UdpBasicApp
config *.Camera*_B.app[0].destAddresses "\"MonitoringCenter_B\""
config *.Camera*_B.app[0].destPort 6000
config *.Camera*_B.app[0].messageLength 1500B
config *.Camera*_B.app[0].sendInterval 33.33ms
config *.Camera*_B.app[0].startTime "uniform(0s, 1s)"
config *.Camera*_B.app[0].packetName "\"Video_Stream\""
config *.Camera*_B.app[0].dscp 0
config *.Camera*_B.app[0].verbose true
config *.Camera*_B.app[1].typename UdpBasicApp
config *.Camera*_B.app[1].localPort 6100
config *.Camera*_B.app[1].destAddresses "\"MonitoringCenter_Main\""
config *.Camera*_B.app[1].destPort 6000
config *.Camera*_B.app[1].messageLength 1500B
config *.Camera*_B.app[1].sendInterval 33.33ms
config *.Camera*_B.app[1].startTime "uniform(0s, 1s)"
config *.Camera*_B.app[1].packetName "\"Video_Stream_Main\""
config *.Camera*_B.app[1].dscp 0
config *.Camera*_B.app[1].verbose true
config *.MonitoringCenter_Main.numApps 2
config *.MonitoringCenter_Main.app[0].typename UdpSink
config *.MonitoringCenter_Main.app[0].localPort 6000
config *.MonitoringCenter_Main.app[0].verbose true
config *.MonitoringCenter_Main.app[1].typename UdpSink
config *.MonitoringCenter_Main.app[1].localPort 9002
config *.MonitoringCenter_Main.app[1].verbose true
config *.VoIP*_A.numApps 1
config *.VoIP*_A.app[0].typename UdpBasicApp
config *.VoIP*_A.app[0].localPort 7001
config *.VoIP*_A.app[0].destAddresses "\"MonitoringCenter_A\""
config *.VoIP*_A.app[0].destPort 7100
config *.VoIP*_A.app[0].messageLength 200B
config *.VoIP*_A.app[0].sendInterval 20ms
config *.VoIP*_A.app[0].startTime "uniform(0s, 200ms)"
config *.VoIP*_A.app[0].packetName "\"VoIP_Stream\""
config *.VoIP*_A.app[0].dscp 0
config *.VoIP*_A.app[0].verbose true
config *.VoIP*_B.numApps 1
config *.VoIP*_B.app[0].typename UdpBasicApp
config *.VoIP*_B.app[0].localPort 8001
config *.VoIP*_B.app[0].destAddresses "\"MonitoringCenter_B\""
config *.VoIP*_B.app[0].destPort 7100
config *.VoIP*_B.app[0].messageLength 200B
config *.VoIP*_B.app[0].sendInterval 20ms
config *.VoIP*_B.app[0].startTime "uniform(0s, 200ms)"
config *.VoIP*_B.app[0].packetName "\"VoIP_Stream\""
config *.VoIP*_B.app[0].dscp 0
config *.VoIP*_B.app[0].verbose true
config *.VoIP2_B.app[0].destPort 7100
config *.VoIP2_B.app[0].messageLength 200B
config *.VoIP2_B.app[0].sendInterval 20ms
config *.VoIP2_B.app[0].startTime "uniform(0s, 200ms)"
config *.VoIP2_B.app[0].packetName "\"VoIP_Stream\""
config *.VoIP2_B.app[0].dscp 0
config *.VoIP2_B.app[0].verbose true
config *.MonitoringCenter_A.app[0].typename UdpSink
config *.MonitoringCenter_A.app[0].localPort 6000
config *.MonitoringCenter_A.app[0].verbose true
config *.MonitoringCenter_A.app[1].typename UdpBasicApp
config *.MonitoringCenter_A.app[1].localPort 9001
config *.MonitoringCenter_A.app[1].destAddresses "\"MonitoringCenter_Main\""
config *.MonitoringCenter_A.app[1].destPort 9002
config *.MonitoringCenter_A.app[1].messageLength "int(normal(1500B, 500B))"
config *.MonitoringCenter_A.app[1].sendInterval exponential(0.1s)
config *.MonitoringCenter_A.app[1].startTime 500ms
config *.MonitoringCenter_A.app[1].packetName "\"OM_Data_Burst_A\""
config *.MonitoringCenter_A.app[1].dscp 0
config *.MonitoringCenter_A.app[1].verbose true
config *.MonitoringCenter_A.app[2].typename UdpSink
config *.MonitoringCenter_A.app[2].localPort 9004
config *.MonitoringCenter_A.app[2].verbose true
config *.MonitoringCenter_A.app[3].typename UdpSink
config *.MonitoringCenter_A.app[3].localPort 7100
config *.MonitoringCenter_A.app[3].verbose true
config *.MonitoringCenter_B.numApps 4
config *.MonitoringCenter_B.app[0].typename UdpSink
config *.MonitoringCenter_B.app[0].localPort 6000
config *.MonitoringCenter_B.app[0].verbose true
config *.MonitoringCenter_B.app[1].typename UdpSink
config *.MonitoringCenter_B.app[1].localPort 9002
config *.MonitoringCenter_B.app[1].verbose true
config *.MonitoringCenter_B.app[2].typename UdpBasicApp
config *.MonitoringCenter_B.app[2].localPort 9003
config *.MonitoringCenter_B.app[2].destAddresses "\"MonitoringCenter_Main\""
config *.MonitoringCenter_B.app[2].destPort 9004
config *.MonitoringCenter_B.app[2].messageLength "int(normal(1500B, 500B))"
config *.MonitoringCenter_B.app[2].sendInterval exponential(0.1s)
config *.MonitoringCenter_B.app[2].startTime 600ms
config *.MonitoringCenter_B.app[2].packetName "\"OM_Data_Burst_B\""
config *.MonitoringCenter_B.app[2].dscp 0
config *.MonitoringCenter_B.app[2].verbose true
config *.MonitoringCenter_B.app[3].typename UdpSink
config *.MonitoringCenter_B.app[3].localPort 7100
config *.MonitoringCenter_B.app[3].verbose true
config **.app[*].source.packetSentSignal true
config **.app[*].sink.packetReceivedSignal true
config **.app[*].sink.endToEndDelayStatistic.record true
config **.app[*].sink.delayHistogram.record true
config **.app[*].sink.numReceivedStatistic.record true
config **.app[*].sink.throughputStatistic.record true
config **.app[*].sink.jitterStatistic.record true
config **.app[*].sink.jitterHistogram.record true
config *.VoIP*_A.app[*].sink.delayThreshold 150ms
config *.VoIP*_A.app[*].sink.jitterThreshold 30ms
config *.VoIP*_B.app[*].sink.delayThreshold 150ms
config *.VoIP*_B.app[*].sink.jitterThreshold 30ms
config *.MU_A.app[0].sink.delayThreshold 30ms
config *.MU_A.app[0].sink.jitterThreshold 250us
config *.BusProtection_MU*_A.app[*].sink.delayThreshold 30ms
config *.BusProtection_MU*_A.app[*].sink.jitterThreshold 250us
config *.*_A.displayString "\"i=abstract/pc\""
config *.*_B.displayString "\"i=abstract/pc\""
config *.borderGateway*.displayString "\"i=misc/router\""
config *.otnDevice.displayString "\"i=misc/router_vs\""
config *.MU_A.displayString "\"i=block/switch,green\""
config *.Protection_A.displayString "\"i=block/computer,red\""
config *.IT_A.displayString "\"i=block/plug,blue\""
config *.Protection_B.displayString "\"i=block/computer,red\""
config *.MonitoringCenter_A.displayString "\"i=block/server,blue\""
config *.MonitoringCenter_B.displayString "\"i=block/server,blue\""
config *.MonitoringCenter_Main.displayString "\"i=block/server,cyan\""
config *.BusProtection_A.displayString "\"i=block/computer,orange\""
config *.BusProtection_B.displayString "\"i=block/computer,orange\""
config *.BusProtection_MU*_A.displayString "\"i=block/switch,yellow\""
config *.BusProtection_MU*_B.displayString "\"i=block/switch,yellow\""
config *.Camera*_A.displayString "\"i=device/camera,gray\""
config *.Camera*_B.displayString "\"i=device/camera,gray\""
config *.VoIP1_A.displayString "\"i=device/phone,gray\""
config *.VoIP2_A.displayString "\"i=device/phone,gray\""
config *.VoIP1_B.displayString "\"i=device/phone,gray\""
config *.VoIP2_B.displayString "\"i=device/phone,gray\""
config **.channel.displayString "\"ls=black,1\""

par SmartSubstationTopology.MU_A.ethg$o[0].channel typename "\"HighPriorityChannel\""
par SmartSubstationTopology.MU_A.ethg$o[0].channel disabled false
attr mutable ""
par SmartSubstationTopology.MU_A.ethg$o[0].channel delay 5e-05s
attr mutable ""
attr unit s
par SmartSubstationTopology.MU_A.ethg$o[0].channel datarate 1e+09bps
attr mutable ""
attr unit bps
par SmartSubstationTopology.MU_A.ethg$o[0].channel ber 0
attr mutable ""
par SmartSubstationTopology.MU_A.ethg$o[0].channel per 0
attr mutable ""
par SmartSubstationTopology.TSN_A_ACC_PROT.ethg$o[0].channel typename "\"HighPriorityChannel\""
par SmartSubstationTopology.TSN_A_ACC_PROT.ethg$o[0].channel disabled false
attr mutable ""
par SmartSubstationTopology.TSN_A_ACC_PROT.ethg$o[0].channel delay 5e-05s
attr mutable ""
attr unit s
par SmartSubstationTopology.TSN_A_ACC_PROT.ethg$o[0].channel datarate 1e+09bps
attr mutable ""
attr unit bps
par SmartSubstationTopology.TSN_A_ACC_PROT.ethg$o[0].channel ber 0
attr mutable ""
par SmartSubstationTopology.TSN_A_ACC_PROT.ethg$o[0].channel per 0
attr mutable ""
par SmartSubstationTopology.Protection_A.ethg$o[0].channel typename "\"HighPriorityChannel\""
par SmartSubstationTopology.Protection_A.ethg$o[0].channel disabled false
attr mutable ""
par SmartSubstationTopology.Protection_A.ethg$o[0].channel delay 5e-05s
attr mutable ""
attr unit s
par SmartSubstationTopology.Protection_A.ethg$o[0].channel datarate 1e+09bps
attr mutable ""
attr unit bps
par SmartSubstationTopology.Protection_A.ethg$o[0].channel ber 0
attr mutable ""
par SmartSubstationTopology.Protection_A.ethg$o[0].channel per 0
attr mutable ""
par SmartSubstationTopology.TSN_A_ACC_PROT.ethg$o[1].channel typename "\"HighPriorityChannel\""
par SmartSubstationTopology.TSN_A_ACC_PROT.ethg$o[1].channel disabled false
attr mutable ""
par SmartSubstationTopology.TSN_A_ACC_PROT.ethg$o[1].channel delay 5e-05s
attr mutable ""
attr unit s
par SmartSubstationTopology.TSN_A_ACC_PROT.ethg$o[1].channel datarate 1e+09bps
attr mutable ""
attr unit bps
par SmartSubstationTopology.TSN_A_ACC_PROT.ethg$o[1].channel ber 0
attr mutable ""
par SmartSubstationTopology.TSN_A_ACC_PROT.ethg$o[1].channel per 0
attr mutable ""
par SmartSubstationTopology.IT_A.ethg$o[0].channel typename "\"HighPriorityChannel\""
par SmartSubstationTopology.IT_A.ethg$o[0].channel disabled false
attr mutable ""
par SmartSubstationTopology.IT_A.ethg$o[0].channel delay 5e-05s
attr mutable ""
attr unit s
par SmartSubstationTopology.IT_A.ethg$o[0].channel datarate 1e+09bps
attr mutable ""
attr unit bps
par SmartSubstationTopology.IT_A.ethg$o[0].channel ber 0
attr mutable ""
par SmartSubstationTopology.IT_A.ethg$o[0].channel per 0
attr mutable ""
par SmartSubstationTopology.TSN_A_ACC_PROT.ethg$o[2].channel typename "\"HighPriorityChannel\""
par SmartSubstationTopology.TSN_A_ACC_PROT.ethg$o[2].channel disabled false
attr mutable ""
par SmartSubstationTopology.TSN_A_ACC_PROT.ethg$o[2].channel delay 5e-05s
attr mutable ""
attr unit s
par SmartSubstationTopology.TSN_A_ACC_PROT.ethg$o[2].channel datarate 1e+09bps
attr mutable ""
attr unit bps
par SmartSubstationTopology.TSN_A_ACC_PROT.ethg$o[2].channel ber 0
attr mutable ""
par SmartSubstationTopology.TSN_A_ACC_PROT.ethg$o[2].channel per 0
attr mutable ""
par SmartSubstationTopology.TSN_A_ACC_PROT.ethg$o[3].channel typename "\"EthChannel\""
par SmartSubstationTopology.TSN_A_ACC_PROT.ethg$o[3].channel disabled false
attr mutable ""
par SmartSubstationTopology.TSN_A_ACC_PROT.ethg$o[3].channel delay 0.0001s
attr mutable ""
attr unit s
par SmartSubstationTopology.TSN_A_ACC_PROT.ethg$o[3].channel datarate 1e+09bps
attr mutable ""
attr unit bps
par SmartSubstationTopology.TSN_A_ACC_PROT.ethg$o[3].channel ber 0
attr mutable ""
par SmartSubstationTopology.TSN_A_ACC_PROT.ethg$o[3].channel per 0
attr mutable ""
par SmartSubstationTopology.TSN_A.ethg$o[0].channel typename "\"EthChannel\""
par SmartSubstationTopology.TSN_A.ethg$o[0].channel disabled false
attr mutable ""
par SmartSubstationTopology.TSN_A.ethg$o[0].channel delay 0.0001s
attr mutable ""
attr unit s
par SmartSubstationTopology.TSN_A.ethg$o[0].channel datarate 1e+09bps
attr mutable ""
attr unit bps
par SmartSubstationTopology.TSN_A.ethg$o[0].channel ber 0
attr mutable ""
par SmartSubstationTopology.TSN_A.ethg$o[0].channel per 0
attr mutable ""
par SmartSubstationTopology.BusProtection_MU1_A.ethg$o[0].channel typename "\"EthChannel\""
par SmartSubstationTopology.BusProtection_MU1_A.ethg$o[0].channel disabled false
attr mutable ""
par SmartSubstationTopology.BusProtection_MU1_A.ethg$o[0].channel delay 0.0001s
attr mutable ""
attr unit s
par SmartSubstationTopology.BusProtection_MU1_A.ethg$o[0].channel datarate 1e+09bps
attr mutable ""
attr unit bps
par SmartSubstationTopology.BusProtection_MU1_A.ethg$o[0].channel ber 0
attr mutable ""
par SmartSubstationTopology.BusProtection_MU1_A.ethg$o[0].channel per 0
attr mutable ""
par SmartSubstationTopology.TSN_A_ACC_BUS1.ethg$o[0].channel typename "\"EthChannel\""
par SmartSubstationTopology.TSN_A_ACC_BUS1.ethg$o[0].channel disabled false
attr mutable ""
par SmartSubstationTopology.TSN_A_ACC_BUS1.ethg$o[0].channel delay 0.0001s
attr mutable ""
attr unit s
par SmartSubstationTopology.TSN_A_ACC_BUS1.ethg$o[0].channel datarate 1e+09bps
attr mutable ""
attr unit bps
par SmartSubstationTopology.TSN_A_ACC_BUS1.ethg$o[0].channel ber 0
attr mutable ""
par SmartSubstationTopology.TSN_A_ACC_BUS1.ethg$o[0].channel per 0
attr mutable ""
par SmartSubstationTopology.BusProtection_MU2_A.ethg$o[0].channel typename "\"EthChannel\""
par SmartSubstationTopology.BusProtection_MU2_A.ethg$o[0].channel disabled false
attr mutable ""
par SmartSubstationTopology.BusProtection_MU2_A.ethg$o[0].channel delay 0.0001s
attr mutable ""
attr unit s
par SmartSubstationTopology.BusProtection_MU2_A.ethg$o[0].channel datarate 1e+09bps
attr mutable ""
attr unit bps
par SmartSubstationTopology.BusProtection_MU2_A.ethg$o[0].channel ber 0
attr mutable ""
par SmartSubstationTopology.BusProtection_MU2_A.ethg$o[0].channel per 0
attr mutable ""
par SmartSubstationTopology.TSN_A_ACC_BUS2.ethg$o[0].channel typename "\"EthChannel\""
par SmartSubstationTopology.TSN_A_ACC_BUS2.ethg$o[0].channel disabled false
attr mutable ""
par SmartSubstationTopology.TSN_A_ACC_BUS2.ethg$o[0].channel delay 0.0001s
attr mutable ""
attr unit s
par SmartSubstationTopology.TSN_A_ACC_BUS2.ethg$o[0].channel datarate 1e+09bps
attr mutable ""
attr unit bps
par SmartSubstationTopology.TSN_A_ACC_BUS2.ethg$o[0].channel ber 0
attr mutable ""
par SmartSubstationTopology.TSN_A_ACC_BUS2.ethg$o[0].channel per 0
attr mutable ""
par SmartSubstationTopology.BusProtection_MU3_A.ethg$o[0].channel typename "\"EthChannel\""
par SmartSubstationTopology.BusProtection_MU3_A.ethg$o[0].channel disabled false
attr mutable ""
par SmartSubstationTopology.BusProtection_MU3_A.ethg$o[0].channel delay 0.0001s
attr mutable ""
attr unit s
par SmartSubstationTopology.BusProtection_MU3_A.ethg$o[0].channel datarate 1e+09bps
attr mutable ""
attr unit bps
par SmartSubstationTopology.BusProtection_MU3_A.ethg$o[0].channel ber 0
attr mutable ""
par SmartSubstationTopology.BusProtection_MU3_A.ethg$o[0].channel per 0
attr mutable ""
par SmartSubstationTopology.TSN_A_ACC_BUS3.ethg$o[0].channel typename "\"EthChannel\""
par SmartSubstationTopology.TSN_A_ACC_BUS3.ethg$o[0].channel disabled false
attr mutable ""
par SmartSubstationTopology.TSN_A_ACC_BUS3.ethg$o[0].channel delay 0.0001s
attr mutable ""
attr unit s
par SmartSubstationTopology.TSN_A_ACC_BUS3.ethg$o[0].channel datarate 1e+09bps
attr mutable ""
attr unit bps
par SmartSubstationTopology.TSN_A_ACC_BUS3.ethg$o[0].channel ber 0
attr mutable ""
par SmartSubstationTopology.TSN_A_ACC_BUS3.ethg$o[0].channel per 0
attr mutable ""
par SmartSubstationTopology.TSN_A_ACC_BUS1.ethg$o[1].channel typename "\"EthChannel\""
par SmartSubstationTopology.TSN_A_ACC_BUS1.ethg$o[1].channel disabled false
attr mutable ""
par SmartSubstationTopology.TSN_A_ACC_BUS1.ethg$o[1].channel delay 0.0001s
attr mutable ""
attr unit s
par SmartSubstationTopology.TSN_A_ACC_BUS1.ethg$o[1].channel datarate 1e+09bps
attr mutable ""
attr unit bps
par SmartSubstationTopology.TSN_A_ACC_BUS1.ethg$o[1].channel ber 0
attr mutable ""
par SmartSubstationTopology.TSN_A_ACC_BUS1.ethg$o[1].channel per 0
attr mutable ""
par SmartSubstationTopology.TSN_A.ethg$o[1].channel typename "\"EthChannel\""
par SmartSubstationTopology.TSN_A.ethg$o[1].channel disabled false
attr mutable ""
par SmartSubstationTopology.TSN_A.ethg$o[1].channel delay 0.0001s
attr mutable ""
attr unit s
par SmartSubstationTopology.TSN_A.ethg$o[1].channel datarate 1e+09bps
attr mutable ""
attr unit bps
par SmartSubstationTopology.TSN_A.ethg$o[1].channel ber 0
attr mutable ""
par SmartSubstationTopology.TSN_A.ethg$o[1].channel per 0
attr mutable ""
par SmartSubstationTopology.TSN_A_ACC_BUS2.ethg$o[1].channel typename "\"EthChannel\""
par SmartSubstationTopology.TSN_A_ACC_BUS2.ethg$o[1].channel disabled false
attr mutable ""
par SmartSubstationTopology.TSN_A_ACC_BUS2.ethg$o[1].channel delay 0.0001s
attr mutable ""
attr unit s
par SmartSubstationTopology.TSN_A_ACC_BUS2.ethg$o[1].channel datarate 1e+09bps
attr mutable ""
attr unit bps
par SmartSubstationTopology.TSN_A_ACC_BUS2.ethg$o[1].channel ber 0
attr mutable ""
par SmartSubstationTopology.TSN_A_ACC_BUS2.ethg$o[1].channel per 0
attr mutable ""
par SmartSubstationTopology.TSN_A.ethg$o[2].channel typename "\"EthChannel\""
par SmartSubstationTopology.TSN_A.ethg$o[2].channel disabled false
attr mutable ""
par SmartSubstationTopology.TSN_A.ethg$o[2].channel delay 0.0001s
attr mutable ""
attr unit s
par SmartSubstationTopology.TSN_A.ethg$o[2].channel datarate 1e+09bps
attr mutable ""
attr unit bps
par SmartSubstationTopology.TSN_A.ethg$o[2].channel ber 0
attr mutable ""
par SmartSubstationTopology.TSN_A.ethg$o[2].channel per 0
attr mutable ""
par SmartSubstationTopology.TSN_A_ACC_BUS3.ethg$o[1].channel typename "\"EthChannel\""
par SmartSubstationTopology.TSN_A_ACC_BUS3.ethg$o[1].channel disabled false
attr mutable ""
par SmartSubstationTopology.TSN_A_ACC_BUS3.ethg$o[1].channel delay 0.0001s
attr mutable ""
attr unit s
par SmartSubstationTopology.TSN_A_ACC_BUS3.ethg$o[1].channel datarate 1e+09bps
attr mutable ""
attr unit bps
par SmartSubstationTopology.TSN_A_ACC_BUS3.ethg$o[1].channel ber 0
attr mutable ""
par SmartSubstationTopology.TSN_A_ACC_BUS3.ethg$o[1].channel per 0
attr mutable ""
par SmartSubstationTopology.TSN_A.ethg$o[3].channel typename "\"EthChannel\""
par SmartSubstationTopology.TSN_A.ethg$o[3].channel disabled false
attr mutable ""
par SmartSubstationTopology.TSN_A.ethg$o[3].channel delay 0.0001s
attr mutable ""
attr unit s
par SmartSubstationTopology.TSN_A.ethg$o[3].channel datarate 1e+09bps
attr mutable ""
attr unit bps
par SmartSubstationTopology.TSN_A.ethg$o[3].channel ber 0
attr mutable ""
par SmartSubstationTopology.TSN_A.ethg$o[3].channel per 0
attr mutable ""
par SmartSubstationTopology.BusProtection_A.ethg$o[0].channel typename "\"EthChannel\""
par SmartSubstationTopology.BusProtection_A.ethg$o[0].channel disabled false
attr mutable ""
par SmartSubstationTopology.BusProtection_A.ethg$o[0].channel delay 0.0001s
attr mutable ""
attr unit s
par SmartSubstationTopology.BusProtection_A.ethg$o[0].channel datarate 1e+09bps
attr mutable ""
attr unit bps
par SmartSubstationTopology.BusProtection_A.ethg$o[0].channel ber 0
attr mutable ""
par SmartSubstationTopology.BusProtection_A.ethg$o[0].channel per 0
attr mutable ""
par SmartSubstationTopology.TSN_A.ethg$o[4].channel typename "\"EthChannel\""
par SmartSubstationTopology.TSN_A.ethg$o[4].channel disabled false
attr mutable ""
par SmartSubstationTopology.TSN_A.ethg$o[4].channel delay 0.0001s
attr mutable ""
attr unit s
par SmartSubstationTopology.TSN_A.ethg$o[4].channel datarate 1e+09bps
attr mutable ""
attr unit bps
par SmartSubstationTopology.TSN_A.ethg$o[4].channel ber 0
attr mutable ""
par SmartSubstationTopology.TSN_A.ethg$o[4].channel per 0
attr mutable ""
par SmartSubstationTopology.Camera1_A.ethg$o[0].channel typename "\"EthChannel\""
par SmartSubstationTopology.Camera1_A.ethg$o[0].channel disabled false
attr mutable ""
par SmartSubstationTopology.Camera1_A.ethg$o[0].channel delay 0.0001s
attr mutable ""
attr unit s
par SmartSubstationTopology.Camera1_A.ethg$o[0].channel datarate 1e+09bps
attr mutable ""
attr unit bps
par SmartSubstationTopology.Camera1_A.ethg$o[0].channel ber 0
attr mutable ""
par SmartSubstationTopology.Camera1_A.ethg$o[0].channel per 0
attr mutable ""
par SmartSubstationTopology.TSN_A_ACC_CAM1.ethg$o[0].channel typename "\"EthChannel\""
par SmartSubstationTopology.TSN_A_ACC_CAM1.ethg$o[0].channel disabled false
attr mutable ""
par SmartSubstationTopology.TSN_A_ACC_CAM1.ethg$o[0].channel delay 0.0001s
attr mutable ""
attr unit s
par SmartSubstationTopology.TSN_A_ACC_CAM1.ethg$o[0].channel datarate 1e+09bps
attr mutable ""
attr unit bps
par SmartSubstationTopology.TSN_A_ACC_CAM1.ethg$o[0].channel ber 0
attr mutable ""
par SmartSubstationTopology.TSN_A_ACC_CAM1.ethg$o[0].channel per 0
attr mutable ""
par SmartSubstationTopology.Camera2_A.ethg$o[0].channel typename "\"EthChannel\""
par SmartSubstationTopology.Camera2_A.ethg$o[0].channel disabled false
attr mutable ""
par SmartSubstationTopology.Camera2_A.ethg$o[0].channel delay 0.0001s
attr mutable ""
attr unit s
par SmartSubstationTopology.Camera2_A.ethg$o[0].channel datarate 1e+09bps
attr mutable ""
attr unit bps
par SmartSubstationTopology.Camera2_A.ethg$o[0].channel ber 0
attr mutable ""
par SmartSubstationTopology.Camera2_A.ethg$o[0].channel per 0
attr mutable ""
par SmartSubstationTopology.TSN_A_ACC_CAM1.ethg$o[1].channel typename "\"EthChannel\""
par SmartSubstationTopology.TSN_A_ACC_CAM1.ethg$o[1].channel disabled false
attr mutable ""
par SmartSubstationTopology.TSN_A_ACC_CAM1.ethg$o[1].channel delay 0.0001s
attr mutable ""
attr unit s
par SmartSubstationTopology.TSN_A_ACC_CAM1.ethg$o[1].channel datarate 1e+09bps
attr mutable ""
attr unit bps
par SmartSubstationTopology.TSN_A_ACC_CAM1.ethg$o[1].channel ber 0
attr mutable ""
par SmartSubstationTopology.TSN_A_ACC_CAM1.ethg$o[1].channel per 0
attr mutable ""
par SmartSubstationTopology.Camera3_A.ethg$o[0].channel typename "\"EthChannel\""
par SmartSubstationTopology.Camera3_A.ethg$o[0].channel disabled false
attr mutable ""
par SmartSubstationTopology.Camera3_A.ethg$o[0].channel delay 0.0001s
attr mutable ""
attr unit s
par SmartSubstationTopology.Camera3_A.ethg$o[0].channel datarate 1e+09bps
attr mutable ""
attr unit bps
par SmartSubstationTopology.Camera3_A.ethg$o[0].channel ber 0
attr mutable ""
par SmartSubstationTopology.Camera3_A.ethg$o[0].channel per 0
attr mutable ""
par SmartSubstationTopology.TSN_A_ACC_CAM1.ethg$o[2].channel typename "\"EthChannel\""
par SmartSubstationTopology.TSN_A_ACC_CAM1.ethg$o[2].channel disabled false
attr mutable ""
par SmartSubstationTopology.TSN_A_ACC_CAM1.ethg$o[2].channel delay 0.0001s
attr mutable ""
attr unit s
par SmartSubstationTopology.TSN_A_ACC_CAM1.ethg$o[2].channel datarate 1e+09bps
attr mutable ""
attr unit bps
par SmartSubstationTopology.TSN_A_ACC_CAM1.ethg$o[2].channel ber 0
attr mutable ""
par SmartSubstationTopology.TSN_A_ACC_CAM1.ethg$o[2].channel per 0
attr mutable ""
par SmartSubstationTopology.Camera4_A.ethg$o[0].channel typename "\"EthChannel\""
par SmartSubstationTopology.Camera4_A.ethg$o[0].channel disabled false
attr mutable ""
par SmartSubstationTopology.Camera4_A.ethg$o[0].channel delay 0.0001s
attr mutable ""
attr unit s
par SmartSubstationTopology.Camera4_A.ethg$o[0].channel datarate 1e+09bps
attr mutable ""
attr unit bps
par SmartSubstationTopology.Camera4_A.ethg$o[0].channel ber 0
attr mutable ""
par SmartSubstationTopology.Camera4_A.ethg$o[0].channel per 0
attr mutable ""
par SmartSubstationTopology.TSN_A_ACC_CAM1.ethg$o[3].channel typename "\"EthChannel\""
par SmartSubstationTopology.TSN_A_ACC_CAM1.ethg$o[3].channel disabled false
attr mutable ""
par SmartSubstationTopology.TSN_A_ACC_CAM1.ethg$o[3].channel delay 0.0001s
attr mutable ""
attr unit s
par SmartSubstationTopology.TSN_A_ACC_CAM1.ethg$o[3].channel datarate 1e+09bps
attr mutable ""
attr unit bps
par SmartSubstationTopology.TSN_A_ACC_CAM1.ethg$o[3].channel ber 0
attr mutable ""
par SmartSubstationTopology.TSN_A_ACC_CAM1.ethg$o[3].channel per 0
attr mutable ""
par SmartSubstationTopology.Camera5_A.ethg$o[0].channel typename "\"EthChannel\""
par SmartSubstationTopology.Camera5_A.ethg$o[0].channel disabled false
attr mutable ""
par SmartSubstationTopology.Camera5_A.ethg$o[0].channel delay 0.0001s
attr mutable ""
attr unit s
par SmartSubstationTopology.Camera5_A.ethg$o[0].channel datarate 1e+09bps
attr mutable ""
attr unit bps
par SmartSubstationTopology.Camera5_A.ethg$o[0].channel ber 0
attr mutable ""
par SmartSubstationTopology.Camera5_A.ethg$o[0].channel per 0
attr mutable ""
par SmartSubstationTopology.TSN_A_ACC_CAM1.ethg$o[4].channel typename "\"EthChannel\""
par SmartSubstationTopology.TSN_A_ACC_CAM1.ethg$o[4].channel disabled false
attr mutable ""
par SmartSubstationTopology.TSN_A_ACC_CAM1.ethg$o[4].channel delay 0.0001s
attr mutable ""
attr unit s
par SmartSubstationTopology.TSN_A_ACC_CAM1.ethg$o[4].channel datarate 1e+09bps
attr mutable ""
attr unit bps
par SmartSubstationTopology.TSN_A_ACC_CAM1.ethg$o[4].channel ber 0
attr mutable ""
par SmartSubstationTopology.TSN_A_ACC_CAM1.ethg$o[4].channel per 0
attr mutable ""
par SmartSubstationTopology.VoIP1_A.ethg$o[0].channel typename "\"EthChannel\""
par SmartSubstationTopology.VoIP1_A.ethg$o[0].channel disabled false
attr mutable ""
par SmartSubstationTopology.VoIP1_A.ethg$o[0].channel delay 0.0001s
attr mutable ""
attr unit s
par SmartSubstationTopology.VoIP1_A.ethg$o[0].channel datarate 1e+09bps
attr mutable ""
attr unit bps
par SmartSubstationTopology.VoIP1_A.ethg$o[0].channel ber 0
attr mutable ""
par SmartSubstationTopology.VoIP1_A.ethg$o[0].channel per 0
attr mutable ""
par SmartSubstationTopology.TSN_A_ACC_CAM1.ethg$o[5].channel typename "\"EthChannel\""
par SmartSubstationTopology.TSN_A_ACC_CAM1.ethg$o[5].channel disabled false
attr mutable ""
par SmartSubstationTopology.TSN_A_ACC_CAM1.ethg$o[5].channel delay 0.0001s
attr mutable ""
attr unit s
par SmartSubstationTopology.TSN_A_ACC_CAM1.ethg$o[5].channel datarate 1e+09bps
attr mutable ""
attr unit bps
par SmartSubstationTopology.TSN_A_ACC_CAM1.ethg$o[5].channel ber 0
attr mutable ""
par SmartSubstationTopology.TSN_A_ACC_CAM1.ethg$o[5].channel per 0
attr mutable ""
par SmartSubstationTopology.Camera6_A.ethg$o[0].channel typename "\"EthChannel\""
par SmartSubstationTopology.Camera6_A.ethg$o[0].channel disabled false
attr mutable ""
par SmartSubstationTopology.Camera6_A.ethg$o[0].channel delay 0.0001s
attr mutable ""
attr unit s
par SmartSubstationTopology.Camera6_A.ethg$o[0].channel datarate 1e+09bps
attr mutable ""
attr unit bps
par SmartSubstationTopology.Camera6_A.ethg$o[0].channel ber 0
attr mutable ""
par SmartSubstationTopology.Camera6_A.ethg$o[0].channel per 0
attr mutable ""
par SmartSubstationTopology.TSN_A_ACC_CAM2.ethg$o[0].channel typename "\"EthChannel\""
par SmartSubstationTopology.TSN_A_ACC_CAM2.ethg$o[0].channel disabled false
attr mutable ""
par SmartSubstationTopology.TSN_A_ACC_CAM2.ethg$o[0].channel delay 0.0001s
attr mutable ""
attr unit s
par SmartSubstationTopology.TSN_A_ACC_CAM2.ethg$o[0].channel datarate 1e+09bps
attr mutable ""
attr unit bps
par SmartSubstationTopology.TSN_A_ACC_CAM2.ethg$o[0].channel ber 0
attr mutable ""
par SmartSubstationTopology.TSN_A_ACC_CAM2.ethg$o[0].channel per 0
attr mutable ""
par SmartSubstationTopology.Camera7_A.ethg$o[0].channel typename "\"EthChannel\""
par SmartSubstationTopology.Camera7_A.ethg$o[0].channel disabled false
attr mutable ""
par SmartSubstationTopology.Camera7_A.ethg$o[0].channel delay 0.0001s
attr mutable ""
attr unit s
par SmartSubstationTopology.Camera7_A.ethg$o[0].channel datarate 1e+09bps
attr mutable ""
attr unit bps
par SmartSubstationTopology.Camera7_A.ethg$o[0].channel ber 0
attr mutable ""
par SmartSubstationTopology.Camera7_A.ethg$o[0].channel per 0
attr mutable ""
par SmartSubstationTopology.TSN_A_ACC_CAM2.ethg$o[1].channel typename "\"EthChannel\""
par SmartSubstationTopology.TSN_A_ACC_CAM2.ethg$o[1].channel disabled false
attr mutable ""
par SmartSubstationTopology.TSN_A_ACC_CAM2.ethg$o[1].channel delay 0.0001s
attr mutable ""
attr unit s
par SmartSubstationTopology.TSN_A_ACC_CAM2.ethg$o[1].channel datarate 1e+09bps
attr mutable ""
attr unit bps
par SmartSubstationTopology.TSN_A_ACC_CAM2.ethg$o[1].channel ber 0
attr mutable ""
par SmartSubstationTopology.TSN_A_ACC_CAM2.ethg$o[1].channel per 0
attr mutable ""
par SmartSubstationTopology.Camera8_A.ethg$o[0].channel typename "\"EthChannel\""
par SmartSubstationTopology.Camera8_A.ethg$o[0].channel disabled false
attr mutable ""
par SmartSubstationTopology.Camera8_A.ethg$o[0].channel delay 0.0001s
attr mutable ""
attr unit s
par SmartSubstationTopology.Camera8_A.ethg$o[0].channel datarate 1e+09bps
attr mutable ""
attr unit bps
par SmartSubstationTopology.Camera8_A.ethg$o[0].channel ber 0
attr mutable ""
par SmartSubstationTopology.Camera8_A.ethg$o[0].channel per 0
attr mutable ""
par SmartSubstationTopology.TSN_A_ACC_CAM2.ethg$o[2].channel typename "\"EthChannel\""
par SmartSubstationTopology.TSN_A_ACC_CAM2.ethg$o[2].channel disabled false
attr mutable ""
par SmartSubstationTopology.TSN_A_ACC_CAM2.ethg$o[2].channel delay 0.0001s
attr mutable ""
attr unit s
par SmartSubstationTopology.TSN_A_ACC_CAM2.ethg$o[2].channel datarate 1e+09bps
attr mutable ""
attr unit bps
par SmartSubstationTopology.TSN_A_ACC_CAM2.ethg$o[2].channel ber 0
attr mutable ""
par SmartSubstationTopology.TSN_A_ACC_CAM2.ethg$o[2].channel per 0
attr mutable ""
par SmartSubstationTopology.Camera9_A.ethg$o[0].channel typename "\"EthChannel\""
par SmartSubstationTopology.Camera9_A.ethg$o[0].channel disabled false
attr mutable ""
par SmartSubstationTopology.Camera9_A.ethg$o[0].channel delay 0.0001s
attr mutable ""
attr unit s
par SmartSubstationTopology.Camera9_A.ethg$o[0].channel datarate 1e+09bps
attr mutable ""
attr unit bps
par SmartSubstationTopology.Camera9_A.ethg$o[0].channel ber 0
attr mutable ""
par SmartSubstationTopology.Camera9_A.ethg$o[0].channel per 0
attr mutable ""
par SmartSubstationTopology.TSN_A_ACC_CAM2.ethg$o[3].channel typename "\"EthChannel\""
par SmartSubstationTopology.TSN_A_ACC_CAM2.ethg$o[3].channel disabled false
attr mutable ""
par SmartSubstationTopology.TSN_A_ACC_CAM2.ethg$o[3].channel delay 0.0001s
attr mutable ""
attr unit s
par SmartSubstationTopology.TSN_A_ACC_CAM2.ethg$o[3].channel datarate 1e+09bps
attr mutable ""
attr unit bps
par SmartSubstationTopology.TSN_A_ACC_CAM2.ethg$o[3].channel ber 0
attr mutable ""
par SmartSubstationTopology.TSN_A_ACC_CAM2.ethg$o[3].channel per 0
attr mutable ""
par SmartSubstationTopology.Camera10_A.ethg$o[0].channel typename "\"EthChannel\""
par SmartSubstationTopology.Camera10_A.ethg$o[0].channel disabled false
attr mutable ""
par SmartSubstationTopology.Camera10_A.ethg$o[0].channel delay 0.0001s
attr mutable ""
attr unit s
par SmartSubstationTopology.Camera10_A.ethg$o[0].channel datarate 1e+09bps
attr mutable ""
attr unit bps
par SmartSubstationTopology.Camera10_A.ethg$o[0].channel ber 0
attr mutable ""
par SmartSubstationTopology.Camera10_A.ethg$o[0].channel per 0
attr mutable ""
par SmartSubstationTopology.TSN_A_ACC_CAM2.ethg$o[4].channel typename "\"EthChannel\""
par SmartSubstationTopology.TSN_A_ACC_CAM2.ethg$o[4].channel disabled false
attr mutable ""
par SmartSubstationTopology.TSN_A_ACC_CAM2.ethg$o[4].channel delay 0.0001s
attr mutable ""
attr unit s
par SmartSubstationTopology.TSN_A_ACC_CAM2.ethg$o[4].channel datarate 1e+09bps
attr mutable ""
attr unit bps
par SmartSubstationTopology.TSN_A_ACC_CAM2.ethg$o[4].channel ber 0
attr mutable ""
par SmartSubstationTopology.TSN_A_ACC_CAM2.ethg$o[4].channel per 0
attr mutable ""
par SmartSubstationTopology.VoIP2_A.ethg$o[0].channel typename "\"EthChannel\""
par SmartSubstationTopology.VoIP2_A.ethg$o[0].channel disabled false
attr mutable ""
par SmartSubstationTopology.VoIP2_A.ethg$o[0].channel delay 0.0001s
attr mutable ""
attr unit s
par SmartSubstationTopology.VoIP2_A.ethg$o[0].channel datarate 1e+09bps
attr mutable ""
attr unit bps
par SmartSubstationTopology.VoIP2_A.ethg$o[0].channel ber 0
attr mutable ""
par SmartSubstationTopology.VoIP2_A.ethg$o[0].channel per 0
attr mutable ""
par SmartSubstationTopology.TSN_A_ACC_CAM2.ethg$o[5].channel typename "\"EthChannel\""
par SmartSubstationTopology.TSN_A_ACC_CAM2.ethg$o[5].channel disabled false
attr mutable ""
par SmartSubstationTopology.TSN_A_ACC_CAM2.ethg$o[5].channel delay 0.0001s
attr mutable ""
attr unit s
par SmartSubstationTopology.TSN_A_ACC_CAM2.ethg$o[5].channel datarate 1e+09bps
attr mutable ""
attr unit bps
par SmartSubstationTopology.TSN_A_ACC_CAM2.ethg$o[5].channel ber 0
attr mutable ""
par SmartSubstationTopology.TSN_A_ACC_CAM2.ethg$o[5].channel per 0
attr mutable ""
par SmartSubstationTopology.MonitoringCenter_A.ethg$o[0].channel typename "\"EthChannel\""
par SmartSubstationTopology.MonitoringCenter_A.ethg$o[0].channel disabled false
attr mutable ""
par SmartSubstationTopology.MonitoringCenter_A.ethg$o[0].channel delay 0.0001s
attr mutable ""
attr unit s
par SmartSubstationTopology.MonitoringCenter_A.ethg$o[0].channel datarate 1e+09bps
attr mutable ""
attr unit bps
par SmartSubstationTopology.MonitoringCenter_A.ethg$o[0].channel ber 0
attr mutable ""
par SmartSubstationTopology.MonitoringCenter_A.ethg$o[0].channel per 0
attr mutable ""
par SmartSubstationTopology.TSN_A.ethg$o[5].channel typename "\"EthChannel\""
par SmartSubstationTopology.TSN_A.ethg$o[5].channel disabled false
attr mutable ""
par SmartSubstationTopology.TSN_A.ethg$o[5].channel delay 0.0001s
attr mutable ""
attr unit s
par SmartSubstationTopology.TSN_A.ethg$o[5].channel datarate 1e+09bps
attr mutable ""
attr unit bps
par SmartSubstationTopology.TSN_A.ethg$o[5].channel ber 0
attr mutable ""
par SmartSubstationTopology.TSN_A.ethg$o[5].channel per 0
attr mutable ""
par SmartSubstationTopology.TSN_A_ACC_CAM1.ethg$o[6].channel typename "\"EthChannel\""
par SmartSubstationTopology.TSN_A_ACC_CAM1.ethg$o[6].channel disabled false
attr mutable ""
par SmartSubstationTopology.TSN_A_ACC_CAM1.ethg$o[6].channel delay 0.0001s
attr mutable ""
attr unit s
par SmartSubstationTopology.TSN_A_ACC_CAM1.ethg$o[6].channel datarate 1e+09bps
attr mutable ""
attr unit bps
par SmartSubstationTopology.TSN_A_ACC_CAM1.ethg$o[6].channel ber 0
attr mutable ""
par SmartSubstationTopology.TSN_A_ACC_CAM1.ethg$o[6].channel per 0
attr mutable ""
par SmartSubstationTopology.TSN_A.ethg$o[6].channel typename "\"EthChannel\""
par SmartSubstationTopology.TSN_A.ethg$o[6].channel disabled false
attr mutable ""
par SmartSubstationTopology.TSN_A.ethg$o[6].channel delay 0.0001s
attr mutable ""
attr unit s
par SmartSubstationTopology.TSN_A.ethg$o[6].channel datarate 1e+09bps
attr mutable ""
attr unit bps
par SmartSubstationTopology.TSN_A.ethg$o[6].channel ber 0
attr mutable ""
par SmartSubstationTopology.TSN_A.ethg$o[6].channel per 0
attr mutable ""
par SmartSubstationTopology.TSN_A_ACC_CAM2.ethg$o[6].channel typename "\"EthChannel\""
par SmartSubstationTopology.TSN_A_ACC_CAM2.ethg$o[6].channel disabled false
attr mutable ""
par SmartSubstationTopology.TSN_A_ACC_CAM2.ethg$o[6].channel delay 0.0001s
attr mutable ""
attr unit s
par SmartSubstationTopology.TSN_A_ACC_CAM2.ethg$o[6].channel datarate 1e+09bps
attr mutable ""
attr unit bps
par SmartSubstationTopology.TSN_A_ACC_CAM2.ethg$o[6].channel ber 0
attr mutable ""
par SmartSubstationTopology.TSN_A_ACC_CAM2.ethg$o[6].channel per 0
attr mutable ""
par SmartSubstationTopology.TSN_A.ethg$o[7].channel typename "\"EthChannel\""
par SmartSubstationTopology.TSN_A.ethg$o[7].channel disabled false
attr mutable ""
par SmartSubstationTopology.TSN_A.ethg$o[7].channel delay 0.0001s
attr mutable ""
attr unit s
par SmartSubstationTopology.TSN_A.ethg$o[7].channel datarate 1e+09bps
attr mutable ""
attr unit bps
par SmartSubstationTopology.TSN_A.ethg$o[7].channel ber 0
attr mutable ""
par SmartSubstationTopology.TSN_A.ethg$o[7].channel per 0
attr mutable ""
par SmartSubstationTopology.MU_B.ethg$o[0].channel typename "\"HighPriorityChannel\""
par SmartSubstationTopology.MU_B.ethg$o[0].channel disabled false
attr mutable ""
par SmartSubstationTopology.MU_B.ethg$o[0].channel delay 5e-05s
attr mutable ""
attr unit s
par SmartSubstationTopology.MU_B.ethg$o[0].channel datarate 1e+09bps
attr mutable ""
attr unit bps
par SmartSubstationTopology.MU_B.ethg$o[0].channel ber 0
attr mutable ""
par SmartSubstationTopology.MU_B.ethg$o[0].channel per 0
attr mutable ""
par SmartSubstationTopology.TSN_B_ACC_PROT.ethg$o[0].channel typename "\"HighPriorityChannel\""
par SmartSubstationTopology.TSN_B_ACC_PROT.ethg$o[0].channel disabled false
attr mutable ""
par SmartSubstationTopology.TSN_B_ACC_PROT.ethg$o[0].channel delay 5e-05s
attr mutable ""
attr unit s
par SmartSubstationTopology.TSN_B_ACC_PROT.ethg$o[0].channel datarate 1e+09bps
attr mutable ""
attr unit bps
par SmartSubstationTopology.TSN_B_ACC_PROT.ethg$o[0].channel ber 0
attr mutable ""
par SmartSubstationTopology.TSN_B_ACC_PROT.ethg$o[0].channel per 0
attr mutable ""
par SmartSubstationTopology.Protection_B.ethg$o[0].channel typename "\"HighPriorityChannel\""
par SmartSubstationTopology.Protection_B.ethg$o[0].channel disabled false
attr mutable ""
par SmartSubstationTopology.Protection_B.ethg$o[0].channel delay 5e-05s
attr mutable ""
attr unit s
par SmartSubstationTopology.Protection_B.ethg$o[0].channel datarate 1e+09bps
attr mutable ""
attr unit bps
par SmartSubstationTopology.Protection_B.ethg$o[0].channel ber 0
attr mutable ""
par SmartSubstationTopology.Protection_B.ethg$o[0].channel per 0
attr mutable ""
par SmartSubstationTopology.TSN_B_ACC_PROT.ethg$o[1].channel typename "\"HighPriorityChannel\""
par SmartSubstationTopology.TSN_B_ACC_PROT.ethg$o[1].channel disabled false
attr mutable ""
par SmartSubstationTopology.TSN_B_ACC_PROT.ethg$o[1].channel delay 5e-05s
attr mutable ""
attr unit s
par SmartSubstationTopology.TSN_B_ACC_PROT.ethg$o[1].channel datarate 1e+09bps
attr mutable ""
attr unit bps
par SmartSubstationTopology.TSN_B_ACC_PROT.ethg$o[1].channel ber 0
attr mutable ""
par SmartSubstationTopology.TSN_B_ACC_PROT.ethg$o[1].channel per 0
attr mutable ""
par SmartSubstationTopology.IT_B.ethg$o[0].channel typename "\"HighPriorityChannel\""
par SmartSubstationTopology.IT_B.ethg$o[0].channel disabled false
attr mutable ""
par SmartSubstationTopology.IT_B.ethg$o[0].channel delay 5e-05s
attr mutable ""
attr unit s
par SmartSubstationTopology.IT_B.ethg$o[0].channel datarate 1e+09bps
attr mutable ""
attr unit bps
par SmartSubstationTopology.IT_B.ethg$o[0].channel ber 0
attr mutable ""
par SmartSubstationTopology.IT_B.ethg$o[0].channel per 0
attr mutable ""
par SmartSubstationTopology.TSN_B_ACC_PROT.ethg$o[2].channel typename "\"HighPriorityChannel\""
par SmartSubstationTopology.TSN_B_ACC_PROT.ethg$o[2].channel disabled false
attr mutable ""
par SmartSubstationTopology.TSN_B_ACC_PROT.ethg$o[2].channel delay 5e-05s
attr mutable ""
attr unit s
par SmartSubstationTopology.TSN_B_ACC_PROT.ethg$o[2].channel datarate 1e+09bps
attr mutable ""
attr unit bps
par SmartSubstationTopology.TSN_B_ACC_PROT.ethg$o[2].channel ber 0
attr mutable ""
par SmartSubstationTopology.TSN_B_ACC_PROT.ethg$o[2].channel per 0
attr mutable ""
par SmartSubstationTopology.TSN_B_ACC_PROT.ethg$o[3].channel typename "\"EthChannel\""
par SmartSubstationTopology.TSN_B_ACC_PROT.ethg$o[3].channel disabled false
attr mutable ""
par SmartSubstationTopology.TSN_B_ACC_PROT.ethg$o[3].channel delay 0.0001s
attr mutable ""
attr unit s
par SmartSubstationTopology.TSN_B_ACC_PROT.ethg$o[3].channel datarate 1e+09bps
attr mutable ""
attr unit bps
par SmartSubstationTopology.TSN_B_ACC_PROT.ethg$o[3].channel ber 0
attr mutable ""
par SmartSubstationTopology.TSN_B_ACC_PROT.ethg$o[3].channel per 0
attr mutable ""
par SmartSubstationTopology.TSN_B.ethg$o[0].channel typename "\"EthChannel\""
par SmartSubstationTopology.TSN_B.ethg$o[0].channel disabled false
attr mutable ""
par SmartSubstationTopology.TSN_B.ethg$o[0].channel delay 0.0001s
attr mutable ""
attr unit s
par SmartSubstationTopology.TSN_B.ethg$o[0].channel datarate 1e+09bps
attr mutable ""
attr unit bps
par SmartSubstationTopology.TSN_B.ethg$o[0].channel ber 0
attr mutable ""
par SmartSubstationTopology.TSN_B.ethg$o[0].channel per 0
attr mutable ""
par SmartSubstationTopology.BusProtection_MU1_B.ethg$o[0].channel typename "\"EthChannel\""
par SmartSubstationTopology.BusProtection_MU1_B.ethg$o[0].channel disabled false
attr mutable ""
par SmartSubstationTopology.BusProtection_MU1_B.ethg$o[0].channel delay 0.0001s
attr mutable ""
attr unit s
par SmartSubstationTopology.BusProtection_MU1_B.ethg$o[0].channel datarate 1e+09bps
attr mutable ""
attr unit bps
par SmartSubstationTopology.BusProtection_MU1_B.ethg$o[0].channel ber 0
attr mutable ""
par SmartSubstationTopology.BusProtection_MU1_B.ethg$o[0].channel per 0
attr mutable ""
par SmartSubstationTopology.TSN_B_ACC_BUS1.ethg$o[0].channel typename "\"EthChannel\""
par SmartSubstationTopology.TSN_B_ACC_BUS1.ethg$o[0].channel disabled false
attr mutable ""
par SmartSubstationTopology.TSN_B_ACC_BUS1.ethg$o[0].channel delay 0.0001s
attr mutable ""
attr unit s
par SmartSubstationTopology.TSN_B_ACC_BUS1.ethg$o[0].channel datarate 1e+09bps
attr mutable ""
attr unit bps
par SmartSubstationTopology.TSN_B_ACC_BUS1.ethg$o[0].channel ber 0
attr mutable ""
par SmartSubstationTopology.TSN_B_ACC_BUS1.ethg$o[0].channel per 0
attr mutable ""
par SmartSubstationTopology.BusProtection_MU2_B.ethg$o[0].channel typename "\"EthChannel\""
par SmartSubstationTopology.BusProtection_MU2_B.ethg$o[0].channel disabled false
attr mutable ""
par SmartSubstationTopology.BusProtection_MU2_B.ethg$o[0].channel delay 0.0001s
attr mutable ""
attr unit s
par SmartSubstationTopology.BusProtection_MU2_B.ethg$o[0].channel datarate 1e+09bps
attr mutable ""
attr unit bps
par SmartSubstationTopology.BusProtection_MU2_B.ethg$o[0].channel ber 0
attr mutable ""
par SmartSubstationTopology.BusProtection_MU2_B.ethg$o[0].channel per 0
attr mutable ""
par SmartSubstationTopology.TSN_B_ACC_BUS2.ethg$o[0].channel typename "\"EthChannel\""
par SmartSubstationTopology.TSN_B_ACC_BUS2.ethg$o[0].channel disabled false
attr mutable ""
par SmartSubstationTopology.TSN_B_ACC_BUS2.ethg$o[0].channel delay 0.0001s
attr mutable ""
attr unit s
par SmartSubstationTopology.TSN_B_ACC_BUS2.ethg$o[0].channel datarate 1e+09bps
attr mutable ""
attr unit bps
par SmartSubstationTopology.TSN_B_ACC_BUS2.ethg$o[0].channel ber 0
attr mutable ""
par SmartSubstationTopology.TSN_B_ACC_BUS2.ethg$o[0].channel per 0
attr mutable ""
par SmartSubstationTopology.BusProtection_MU3_B.ethg$o[0].channel typename "\"EthChannel\""
par SmartSubstationTopology.BusProtection_MU3_B.ethg$o[0].channel disabled false
attr mutable ""
par SmartSubstationTopology.BusProtection_MU3_B.ethg$o[0].channel delay 0.0001s
attr mutable ""
attr unit s
par SmartSubstationTopology.BusProtection_MU3_B.ethg$o[0].channel datarate 1e+09bps
attr mutable ""
attr unit bps
par SmartSubstationTopology.BusProtection_MU3_B.ethg$o[0].channel ber 0
attr mutable ""
par SmartSubstationTopology.BusProtection_MU3_B.ethg$o[0].channel per 0
attr mutable ""
par SmartSubstationTopology.TSN_B_ACC_BUS3.ethg$o[0].channel typename "\"EthChannel\""
par SmartSubstationTopology.TSN_B_ACC_BUS3.ethg$o[0].channel disabled false
attr mutable ""
par SmartSubstationTopology.TSN_B_ACC_BUS3.ethg$o[0].channel delay 0.0001s
attr mutable ""
attr unit s
par SmartSubstationTopology.TSN_B_ACC_BUS3.ethg$o[0].channel datarate 1e+09bps
attr mutable ""
attr unit bps
par SmartSubstationTopology.TSN_B_ACC_BUS3.ethg$o[0].channel ber 0
attr mutable ""
par SmartSubstationTopology.TSN_B_ACC_BUS3.ethg$o[0].channel per 0
attr mutable ""
par SmartSubstationTopology.TSN_B_ACC_BUS1.ethg$o[1].channel typename "\"EthChannel\""
par SmartSubstationTopology.TSN_B_ACC_BUS1.ethg$o[1].channel disabled false
attr mutable ""
par SmartSubstationTopology.TSN_B_ACC_BUS1.ethg$o[1].channel delay 0.0001s
attr mutable ""
attr unit s
par SmartSubstationTopology.TSN_B_ACC_BUS1.ethg$o[1].channel datarate 1e+09bps
attr mutable ""
attr unit bps
par SmartSubstationTopology.TSN_B_ACC_BUS1.ethg$o[1].channel ber 0
attr mutable ""
par SmartSubstationTopology.TSN_B_ACC_BUS1.ethg$o[1].channel per 0
attr mutable ""
par SmartSubstationTopology.TSN_B.ethg$o[1].channel typename "\"EthChannel\""
par SmartSubstationTopology.TSN_B.ethg$o[1].channel disabled false
attr mutable ""
par SmartSubstationTopology.TSN_B.ethg$o[1].channel delay 0.0001s
attr mutable ""
attr unit s
par SmartSubstationTopology.TSN_B.ethg$o[1].channel datarate 1e+09bps
attr mutable ""
attr unit bps
par SmartSubstationTopology.TSN_B.ethg$o[1].channel ber 0
attr mutable ""
par SmartSubstationTopology.TSN_B.ethg$o[1].channel per 0
attr mutable ""
par SmartSubstationTopology.TSN_B_ACC_BUS2.ethg$o[1].channel typename "\"EthChannel\""
par SmartSubstationTopology.TSN_B_ACC_BUS2.ethg$o[1].channel disabled false
attr mutable ""
par SmartSubstationTopology.TSN_B_ACC_BUS2.ethg$o[1].channel delay 0.0001s
attr mutable ""
attr unit s
par SmartSubstationTopology.TSN_B_ACC_BUS2.ethg$o[1].channel datarate 1e+09bps
attr mutable ""
attr unit bps
par SmartSubstationTopology.TSN_B_ACC_BUS2.ethg$o[1].channel ber 0
attr mutable ""
par SmartSubstationTopology.TSN_B_ACC_BUS2.ethg$o[1].channel per 0
attr mutable ""
par SmartSubstationTopology.TSN_B.ethg$o[2].channel typename "\"EthChannel\""
par SmartSubstationTopology.TSN_B.ethg$o[2].channel disabled false
attr mutable ""
par SmartSubstationTopology.TSN_B.ethg$o[2].channel delay 0.0001s
attr mutable ""
attr unit s
par SmartSubstationTopology.TSN_B.ethg$o[2].channel datarate 1e+09bps
attr mutable ""
attr unit bps
par SmartSubstationTopology.TSN_B.ethg$o[2].channel ber 0
attr mutable ""
par SmartSubstationTopology.TSN_B.ethg$o[2].channel per 0
attr mutable ""
par SmartSubstationTopology.TSN_B_ACC_BUS3.ethg$o[1].channel typename "\"EthChannel\""
par SmartSubstationTopology.TSN_B_ACC_BUS3.ethg$o[1].channel disabled false
attr mutable ""
par SmartSubstationTopology.TSN_B_ACC_BUS3.ethg$o[1].channel delay 0.0001s
attr mutable ""
attr unit s
par SmartSubstationTopology.TSN_B_ACC_BUS3.ethg$o[1].channel datarate 1e+09bps
attr mutable ""
attr unit bps
par SmartSubstationTopology.TSN_B_ACC_BUS3.ethg$o[1].channel ber 0
attr mutable ""
par SmartSubstationTopology.TSN_B_ACC_BUS3.ethg$o[1].channel per 0
attr mutable ""
par SmartSubstationTopology.TSN_B.ethg$o[3].channel typename "\"EthChannel\""
par SmartSubstationTopology.TSN_B.ethg$o[3].channel disabled false
attr mutable ""
par SmartSubstationTopology.TSN_B.ethg$o[3].channel delay 0.0001s
attr mutable ""
attr unit s
par SmartSubstationTopology.TSN_B.ethg$o[3].channel datarate 1e+09bps
attr mutable ""
attr unit bps
par SmartSubstationTopology.TSN_B.ethg$o[3].channel ber 0
attr mutable ""
par SmartSubstationTopology.TSN_B.ethg$o[3].channel per 0
attr mutable ""
par SmartSubstationTopology.BusProtection_B.ethg$o[0].channel typename "\"EthChannel\""
par SmartSubstationTopology.BusProtection_B.ethg$o[0].channel disabled false
attr mutable ""
par SmartSubstationTopology.BusProtection_B.ethg$o[0].channel delay 0.0001s
attr mutable ""
attr unit s
par SmartSubstationTopology.BusProtection_B.ethg$o[0].channel datarate 1e+09bps
attr mutable ""
attr unit bps
par SmartSubstationTopology.BusProtection_B.ethg$o[0].channel ber 0
attr mutable ""
par SmartSubstationTopology.BusProtection_B.ethg$o[0].channel per 0
attr mutable ""
par SmartSubstationTopology.TSN_B.ethg$o[4].channel typename "\"EthChannel\""
par SmartSubstationTopology.TSN_B.ethg$o[4].channel disabled false
attr mutable ""
par SmartSubstationTopology.TSN_B.ethg$o[4].channel delay 0.0001s
attr mutable ""
attr unit s
par SmartSubstationTopology.TSN_B.ethg$o[4].channel datarate 1e+09bps
attr mutable ""
attr unit bps
par SmartSubstationTopology.TSN_B.ethg$o[4].channel ber 0
attr mutable ""
par SmartSubstationTopology.TSN_B.ethg$o[4].channel per 0
attr mutable ""
par SmartSubstationTopology.Camera1_B.ethg$o[0].channel typename "\"EthChannel\""
par SmartSubstationTopology.Camera1_B.ethg$o[0].channel disabled false
attr mutable ""
par SmartSubstationTopology.Camera1_B.ethg$o[0].channel delay 0.0001s
attr mutable ""
attr unit s
par SmartSubstationTopology.Camera1_B.ethg$o[0].channel datarate 1e+09bps
attr mutable ""
attr unit bps
par SmartSubstationTopology.Camera1_B.ethg$o[0].channel ber 0
attr mutable ""
par SmartSubstationTopology.Camera1_B.ethg$o[0].channel per 0
attr mutable ""
par SmartSubstationTopology.TSN_B_ACC_CAM1.ethg$o[0].channel typename "\"EthChannel\""
par SmartSubstationTopology.TSN_B_ACC_CAM1.ethg$o[0].channel disabled false
attr mutable ""
par SmartSubstationTopology.TSN_B_ACC_CAM1.ethg$o[0].channel delay 0.0001s
attr mutable ""
attr unit s
par SmartSubstationTopology.TSN_B_ACC_CAM1.ethg$o[0].channel datarate 1e+09bps
attr mutable ""
attr unit bps
par SmartSubstationTopology.TSN_B_ACC_CAM1.ethg$o[0].channel ber 0
attr mutable ""
par SmartSubstationTopology.TSN_B_ACC_CAM1.ethg$o[0].channel per 0
attr mutable ""
par SmartSubstationTopology.Camera2_B.ethg$o[0].channel typename "\"EthChannel\""
par SmartSubstationTopology.Camera2_B.ethg$o[0].channel disabled false
attr mutable ""
par SmartSubstationTopology.Camera2_B.ethg$o[0].channel delay 0.0001s
attr mutable ""
attr unit s
par SmartSubstationTopology.Camera2_B.ethg$o[0].channel datarate 1e+09bps
attr mutable ""
attr unit bps
par SmartSubstationTopology.Camera2_B.ethg$o[0].channel ber 0
attr mutable ""
par SmartSubstationTopology.Camera2_B.ethg$o[0].channel per 0
attr mutable ""
par SmartSubstationTopology.TSN_B_ACC_CAM1.ethg$o[1].channel typename "\"EthChannel\""
par SmartSubstationTopology.TSN_B_ACC_CAM1.ethg$o[1].channel disabled false
attr mutable ""
par SmartSubstationTopology.TSN_B_ACC_CAM1.ethg$o[1].channel delay 0.0001s
attr mutable ""
attr unit s
par SmartSubstationTopology.TSN_B_ACC_CAM1.ethg$o[1].channel datarate 1e+09bps
attr mutable ""
attr unit bps
par SmartSubstationTopology.TSN_B_ACC_CAM1.ethg$o[1].channel ber 0
attr mutable ""
par SmartSubstationTopology.TSN_B_ACC_CAM1.ethg$o[1].channel per 0
attr mutable ""
par SmartSubstationTopology.Camera3_B.ethg$o[0].channel typename "\"EthChannel\""
par SmartSubstationTopology.Camera3_B.ethg$o[0].channel disabled false
attr mutable ""
par SmartSubstationTopology.Camera3_B.ethg$o[0].channel delay 0.0001s
attr mutable ""
attr unit s
par SmartSubstationTopology.Camera3_B.ethg$o[0].channel datarate 1e+09bps
attr mutable ""
attr unit bps
par SmartSubstationTopology.Camera3_B.ethg$o[0].channel ber 0
attr mutable ""
par SmartSubstationTopology.Camera3_B.ethg$o[0].channel per 0
attr mutable ""
par SmartSubstationTopology.TSN_B_ACC_CAM1.ethg$o[2].channel typename "\"EthChannel\""
par SmartSubstationTopology.TSN_B_ACC_CAM1.ethg$o[2].channel disabled false
attr mutable ""
par SmartSubstationTopology.TSN_B_ACC_CAM1.ethg$o[2].channel delay 0.0001s
attr mutable ""
attr unit s
par SmartSubstationTopology.TSN_B_ACC_CAM1.ethg$o[2].channel datarate 1e+09bps
attr mutable ""
attr unit bps
par SmartSubstationTopology.TSN_B_ACC_CAM1.ethg$o[2].channel ber 0
attr mutable ""
par SmartSubstationTopology.TSN_B_ACC_CAM1.ethg$o[2].channel per 0
attr mutable ""
par SmartSubstationTopology.Camera4_B.ethg$o[0].channel typename "\"EthChannel\""
par SmartSubstationTopology.Camera4_B.ethg$o[0].channel disabled false
attr mutable ""
par SmartSubstationTopology.Camera4_B.ethg$o[0].channel delay 0.0001s
attr mutable ""
attr unit s
par SmartSubstationTopology.Camera4_B.ethg$o[0].channel datarate 1e+09bps
attr mutable ""
attr unit bps
par SmartSubstationTopology.Camera4_B.ethg$o[0].channel ber 0
attr mutable ""
par SmartSubstationTopology.Camera4_B.ethg$o[0].channel per 0
attr mutable ""
par SmartSubstationTopology.TSN_B_ACC_CAM1.ethg$o[3].channel typename "\"EthChannel\""
par SmartSubstationTopology.TSN_B_ACC_CAM1.ethg$o[3].channel disabled false
attr mutable ""
par SmartSubstationTopology.TSN_B_ACC_CAM1.ethg$o[3].channel delay 0.0001s
attr mutable ""
attr unit s
par SmartSubstationTopology.TSN_B_ACC_CAM1.ethg$o[3].channel datarate 1e+09bps
attr mutable ""
attr unit bps
par SmartSubstationTopology.TSN_B_ACC_CAM1.ethg$o[3].channel ber 0
attr mutable ""
par SmartSubstationTopology.TSN_B_ACC_CAM1.ethg$o[3].channel per 0
attr mutable ""
par SmartSubstationTopology.Camera5_B.ethg$o[0].channel typename "\"EthChannel\""
par SmartSubstationTopology.Camera5_B.ethg$o[0].channel disabled false
attr mutable ""
par SmartSubstationTopology.Camera5_B.ethg$o[0].channel delay 0.0001s
attr mutable ""
attr unit s
par SmartSubstationTopology.Camera5_B.ethg$o[0].channel datarate 1e+09bps
attr mutable ""
attr unit bps
par SmartSubstationTopology.Camera5_B.ethg$o[0].channel ber 0
attr mutable ""
par SmartSubstationTopology.Camera5_B.ethg$o[0].channel per 0
attr mutable ""
par SmartSubstationTopology.TSN_B_ACC_CAM1.ethg$o[4].channel typename "\"EthChannel\""
par SmartSubstationTopology.TSN_B_ACC_CAM1.ethg$o[4].channel disabled false
attr mutable ""
par SmartSubstationTopology.TSN_B_ACC_CAM1.ethg$o[4].channel delay 0.0001s
attr mutable ""
attr unit s
par SmartSubstationTopology.TSN_B_ACC_CAM1.ethg$o[4].channel datarate 1e+09bps
attr mutable ""
attr unit bps
par SmartSubstationTopology.TSN_B_ACC_CAM1.ethg$o[4].channel ber 0
attr mutable ""
par SmartSubstationTopology.TSN_B_ACC_CAM1.ethg$o[4].channel per 0
attr mutable ""
par SmartSubstationTopology.VoIP1_B.ethg$o[0].channel typename "\"EthChannel\""
par SmartSubstationTopology.VoIP1_B.ethg$o[0].channel disabled false
attr mutable ""
par SmartSubstationTopology.VoIP1_B.ethg$o[0].channel delay 0.0001s
attr mutable ""
attr unit s
par SmartSubstationTopology.VoIP1_B.ethg$o[0].channel datarate 1e+09bps
attr mutable ""
attr unit bps
par SmartSubstationTopology.VoIP1_B.ethg$o[0].channel ber 0
attr mutable ""
par SmartSubstationTopology.VoIP1_B.ethg$o[0].channel per 0
attr mutable ""
par SmartSubstationTopology.TSN_B_ACC_CAM1.ethg$o[5].channel typename "\"EthChannel\""
par SmartSubstationTopology.TSN_B_ACC_CAM1.ethg$o[5].channel disabled false
attr mutable ""
par SmartSubstationTopology.TSN_B_ACC_CAM1.ethg$o[5].channel delay 0.0001s
attr mutable ""
attr unit s
par SmartSubstationTopology.TSN_B_ACC_CAM1.ethg$o[5].channel datarate 1e+09bps
attr mutable ""
attr unit bps
par SmartSubstationTopology.TSN_B_ACC_CAM1.ethg$o[5].channel ber 0
attr mutable ""
par SmartSubstationTopology.TSN_B_ACC_CAM1.ethg$o[5].channel per 0
attr mutable ""
par SmartSubstationTopology.Camera6_B.ethg$o[0].channel typename "\"EthChannel\""
par SmartSubstationTopology.Camera6_B.ethg$o[0].channel disabled false
attr mutable ""
par SmartSubstationTopology.Camera6_B.ethg$o[0].channel delay 0.0001s
attr mutable ""
attr unit s
par SmartSubstationTopology.Camera6_B.ethg$o[0].channel datarate 1e+09bps
attr mutable ""
attr unit bps
par SmartSubstationTopology.Camera6_B.ethg$o[0].channel ber 0
attr mutable ""
par SmartSubstationTopology.Camera6_B.ethg$o[0].channel per 0
attr mutable ""
par SmartSubstationTopology.TSN_B_ACC_CAM2.ethg$o[0].channel typename "\"EthChannel\""
par SmartSubstationTopology.TSN_B_ACC_CAM2.ethg$o[0].channel disabled false
attr mutable ""
par SmartSubstationTopology.TSN_B_ACC_CAM2.ethg$o[0].channel delay 0.0001s
attr mutable ""
attr unit s
par SmartSubstationTopology.TSN_B_ACC_CAM2.ethg$o[0].channel datarate 1e+09bps
attr mutable ""
attr unit bps
par SmartSubstationTopology.TSN_B_ACC_CAM2.ethg$o[0].channel ber 0
attr mutable ""
par SmartSubstationTopology.TSN_B_ACC_CAM2.ethg$o[0].channel per 0
attr mutable ""
par SmartSubstationTopology.Camera7_B.ethg$o[0].channel typename "\"EthChannel\""
par SmartSubstationTopology.Camera7_B.ethg$o[0].channel disabled false
attr mutable ""
par SmartSubstationTopology.Camera7_B.ethg$o[0].channel delay 0.0001s
attr mutable ""
attr unit s
par SmartSubstationTopology.Camera7_B.ethg$o[0].channel datarate 1e+09bps
attr mutable ""
attr unit bps
par SmartSubstationTopology.Camera7_B.ethg$o[0].channel ber 0
attr mutable ""
par SmartSubstationTopology.Camera7_B.ethg$o[0].channel per 0
attr mutable ""
par SmartSubstationTopology.TSN_B_ACC_CAM2.ethg$o[1].channel typename "\"EthChannel\""
par SmartSubstationTopology.TSN_B_ACC_CAM2.ethg$o[1].channel disabled false
attr mutable ""
par SmartSubstationTopology.TSN_B_ACC_CAM2.ethg$o[1].channel delay 0.0001s
attr mutable ""
attr unit s
par SmartSubstationTopology.TSN_B_ACC_CAM2.ethg$o[1].channel datarate 1e+09bps
attr mutable ""
attr unit bps
par SmartSubstationTopology.TSN_B_ACC_CAM2.ethg$o[1].channel ber 0
attr mutable ""
par SmartSubstationTopology.TSN_B_ACC_CAM2.ethg$o[1].channel per 0
attr mutable ""
par SmartSubstationTopology.Camera8_B.ethg$o[0].channel typename "\"EthChannel\""
par SmartSubstationTopology.Camera8_B.ethg$o[0].channel disabled false
attr mutable ""
par SmartSubstationTopology.Camera8_B.ethg$o[0].channel delay 0.0001s
attr mutable ""
attr unit s
par SmartSubstationTopology.Camera8_B.ethg$o[0].channel datarate 1e+09bps
attr mutable ""
attr unit bps
par SmartSubstationTopology.Camera8_B.ethg$o[0].channel ber 0
attr mutable ""
par SmartSubstationTopology.Camera8_B.ethg$o[0].channel per 0
attr mutable ""
par SmartSubstationTopology.TSN_B_ACC_CAM2.ethg$o[2].channel typename "\"EthChannel\""
par SmartSubstationTopology.TSN_B_ACC_CAM2.ethg$o[2].channel disabled false
attr mutable ""
par SmartSubstationTopology.TSN_B_ACC_CAM2.ethg$o[2].channel delay 0.0001s
attr mutable ""
attr unit s
par SmartSubstationTopology.TSN_B_ACC_CAM2.ethg$o[2].channel datarate 1e+09bps
attr mutable ""
attr unit bps
par SmartSubstationTopology.TSN_B_ACC_CAM2.ethg$o[2].channel ber 0
attr mutable ""
par SmartSubstationTopology.TSN_B_ACC_CAM2.ethg$o[2].channel per 0
attr mutable ""
par SmartSubstationTopology.Camera9_B.ethg$o[0].channel typename "\"EthChannel\""
par SmartSubstationTopology.Camera9_B.ethg$o[0].channel disabled false
attr mutable ""
par SmartSubstationTopology.Camera9_B.ethg$o[0].channel delay 0.0001s
attr mutable ""
attr unit s
par SmartSubstationTopology.Camera9_B.ethg$o[0].channel datarate 1e+09bps
attr mutable ""
attr unit bps
par SmartSubstationTopology.Camera9_B.ethg$o[0].channel ber 0
attr mutable ""
par SmartSubstationTopology.Camera9_B.ethg$o[0].channel per 0
attr mutable ""
par SmartSubstationTopology.TSN_B_ACC_CAM2.ethg$o[3].channel typename "\"EthChannel\""
par SmartSubstationTopology.TSN_B_ACC_CAM2.ethg$o[3].channel disabled false
attr mutable ""
par SmartSubstationTopology.TSN_B_ACC_CAM2.ethg$o[3].channel delay 0.0001s
attr mutable ""
attr unit s
par SmartSubstationTopology.TSN_B_ACC_CAM2.ethg$o[3].channel datarate 1e+09bps
attr mutable ""
attr unit bps
par SmartSubstationTopology.TSN_B_ACC_CAM2.ethg$o[3].channel ber 0
attr mutable ""
par SmartSubstationTopology.TSN_B_ACC_CAM2.ethg$o[3].channel per 0
attr mutable ""
par SmartSubstationTopology.Camera10_B.ethg$o[0].channel typename "\"EthChannel\""
par SmartSubstationTopology.Camera10_B.ethg$o[0].channel disabled false
attr mutable ""
par SmartSubstationTopology.Camera10_B.ethg$o[0].channel delay 0.0001s
attr mutable ""
attr unit s
par SmartSubstationTopology.Camera10_B.ethg$o[0].channel datarate 1e+09bps
attr mutable ""
attr unit bps
par SmartSubstationTopology.Camera10_B.ethg$o[0].channel ber 0
attr mutable ""
par SmartSubstationTopology.Camera10_B.ethg$o[0].channel per 0
attr mutable ""
par SmartSubstationTopology.TSN_B_ACC_CAM2.ethg$o[4].channel typename "\"EthChannel\""
par SmartSubstationTopology.TSN_B_ACC_CAM2.ethg$o[4].channel disabled false
attr mutable ""
par SmartSubstationTopology.TSN_B_ACC_CAM2.ethg$o[4].channel delay 0.0001s
attr mutable ""
attr unit s
par SmartSubstationTopology.TSN_B_ACC_CAM2.ethg$o[4].channel datarate 1e+09bps
attr mutable ""
attr unit bps
par SmartSubstationTopology.TSN_B_ACC_CAM2.ethg$o[4].channel ber 0
attr mutable ""
par SmartSubstationTopology.TSN_B_ACC_CAM2.ethg$o[4].channel per 0
attr mutable ""
par SmartSubstationTopology.VoIP2_B.ethg$o[0].channel typename "\"EthChannel\""
par SmartSubstationTopology.VoIP2_B.ethg$o[0].channel disabled false
attr mutable ""
par SmartSubstationTopology.VoIP2_B.ethg$o[0].channel delay 0.0001s
attr mutable ""
attr unit s
par SmartSubstationTopology.VoIP2_B.ethg$o[0].channel datarate 1e+09bps
attr mutable ""
attr unit bps
par SmartSubstationTopology.VoIP2_B.ethg$o[0].channel ber 0
attr mutable ""
par SmartSubstationTopology.VoIP2_B.ethg$o[0].channel per 0
attr mutable ""
par SmartSubstationTopology.TSN_B_ACC_CAM2.ethg$o[5].channel typename "\"EthChannel\""
par SmartSubstationTopology.TSN_B_ACC_CAM2.ethg$o[5].channel disabled false
attr mutable ""
par SmartSubstationTopology.TSN_B_ACC_CAM2.ethg$o[5].channel delay 0.0001s
attr mutable ""
attr unit s
par SmartSubstationTopology.TSN_B_ACC_CAM2.ethg$o[5].channel datarate 1e+09bps
attr mutable ""
attr unit bps
par SmartSubstationTopology.TSN_B_ACC_CAM2.ethg$o[5].channel ber 0
attr mutable ""
par SmartSubstationTopology.TSN_B_ACC_CAM2.ethg$o[5].channel per 0
attr mutable ""
par SmartSubstationTopology.MonitoringCenter_B.ethg$o[0].channel typename "\"EthChannel\""
par SmartSubstationTopology.MonitoringCenter_B.ethg$o[0].channel disabled false
attr mutable ""
par SmartSubstationTopology.MonitoringCenter_B.ethg$o[0].channel delay 0.0001s
attr mutable ""
attr unit s
par SmartSubstationTopology.MonitoringCenter_B.ethg$o[0].channel datarate 1e+09bps
attr mutable ""
attr unit bps
par SmartSubstationTopology.MonitoringCenter_B.ethg$o[0].channel ber 0
attr mutable ""
par SmartSubstationTopology.MonitoringCenter_B.ethg$o[0].channel per 0
attr mutable ""
par SmartSubstationTopology.TSN_B.ethg$o[5].channel typename "\"EthChannel\""
par SmartSubstationTopology.TSN_B.ethg$o[5].channel disabled false
attr mutable ""
par SmartSubstationTopology.TSN_B.ethg$o[5].channel delay 0.0001s
attr mutable ""
attr unit s
par SmartSubstationTopology.TSN_B.ethg$o[5].channel datarate 1e+09bps
attr mutable ""
attr unit bps
par SmartSubstationTopology.TSN_B.ethg$o[5].channel ber 0
attr mutable ""
par SmartSubstationTopology.TSN_B.ethg$o[5].channel per 0
attr mutable ""
par SmartSubstationTopology.TSN_A.ethg$o[8].channel typename "\"EthChannel\""
par SmartSubstationTopology.TSN_A.ethg$o[8].channel disabled false
attr mutable ""
par SmartSubstationTopology.TSN_A.ethg$o[8].channel delay 0.0001s
attr mutable ""
attr unit s
par SmartSubstationTopology.TSN_A.ethg$o[8].channel datarate 1e+09bps
attr mutable ""
attr unit bps
par SmartSubstationTopology.TSN_A.ethg$o[8].channel ber 0
attr mutable ""
par SmartSubstationTopology.TSN_A.ethg$o[8].channel per 0
attr mutable ""
par SmartSubstationTopology.MonitoringCenter_Main.ethg$o[0].channel typename "\"EthChannel\""
par SmartSubstationTopology.MonitoringCenter_Main.ethg$o[0].channel disabled false
attr mutable ""
par SmartSubstationTopology.MonitoringCenter_Main.ethg$o[0].channel delay 0.0001s
attr mutable ""
attr unit s
par SmartSubstationTopology.MonitoringCenter_Main.ethg$o[0].channel datarate 1e+09bps
attr mutable ""
attr unit bps
par SmartSubstationTopology.MonitoringCenter_Main.ethg$o[0].channel ber 0
attr mutable ""
par SmartSubstationTopology.MonitoringCenter_Main.ethg$o[0].channel per 0
attr mutable ""
par SmartSubstationTopology.TSN_B.ethg$o[6].channel typename "\"EthChannel\""
par SmartSubstationTopology.TSN_B.ethg$o[6].channel disabled false
attr mutable ""
par SmartSubstationTopology.TSN_B.ethg$o[6].channel delay 0.0001s
attr mutable ""
attr unit s
par SmartSubstationTopology.TSN_B.ethg$o[6].channel datarate 1e+09bps
attr mutable ""
attr unit bps
par SmartSubstationTopology.TSN_B.ethg$o[6].channel ber 0
attr mutable ""
par SmartSubstationTopology.TSN_B.ethg$o[6].channel per 0
attr mutable ""
par SmartSubstationTopology.MonitoringCenter_Main.ethg$o[1].channel typename "\"EthChannel\""
par SmartSubstationTopology.MonitoringCenter_Main.ethg$o[1].channel disabled false
attr mutable ""
par SmartSubstationTopology.MonitoringCenter_Main.ethg$o[1].channel delay 0.0001s
attr mutable ""
attr unit s
par SmartSubstationTopology.MonitoringCenter_Main.ethg$o[1].channel datarate 1e+09bps
attr mutable ""
attr unit bps
par SmartSubstationTopology.MonitoringCenter_Main.ethg$o[1].channel ber 0
attr mutable ""
par SmartSubstationTopology.MonitoringCenter_Main.ethg$o[1].channel per 0
attr mutable ""
par SmartSubstationTopology.TSN_B_ACC_CAM1.ethg$o[6].channel typename "\"EthChannel\""
par SmartSubstationTopology.TSN_B_ACC_CAM1.ethg$o[6].channel disabled false
attr mutable ""
par SmartSubstationTopology.TSN_B_ACC_CAM1.ethg$o[6].channel delay 0.0001s
attr mutable ""
attr unit s
par SmartSubstationTopology.TSN_B_ACC_CAM1.ethg$o[6].channel datarate 1e+09bps
attr mutable ""
attr unit bps
par SmartSubstationTopology.TSN_B_ACC_CAM1.ethg$o[6].channel ber 0
attr mutable ""
par SmartSubstationTopology.TSN_B_ACC_CAM1.ethg$o[6].channel per 0
attr mutable ""
par SmartSubstationTopology.TSN_B.ethg$o[7].channel typename "\"EthChannel\""
par SmartSubstationTopology.TSN_B.ethg$o[7].channel disabled false
attr mutable ""
par SmartSubstationTopology.TSN_B.ethg$o[7].channel delay 0.0001s
attr mutable ""
attr unit s
par SmartSubstationTopology.TSN_B.ethg$o[7].channel datarate 1e+09bps
attr mutable ""
attr unit bps
par SmartSubstationTopology.TSN_B.ethg$o[7].channel ber 0
attr mutable ""
par SmartSubstationTopology.TSN_B.ethg$o[7].channel per 0
attr mutable ""
par SmartSubstationTopology.TSN_B_ACC_CAM2.ethg$o[6].channel typename "\"EthChannel\""
par SmartSubstationTopology.TSN_B_ACC_CAM2.ethg$o[6].channel disabled false
attr mutable ""
par SmartSubstationTopology.TSN_B_ACC_CAM2.ethg$o[6].channel delay 0.0001s
attr mutable ""
attr unit s
par SmartSubstationTopology.TSN_B_ACC_CAM2.ethg$o[6].channel datarate 1e+09bps
attr mutable ""
attr unit bps
par SmartSubstationTopology.TSN_B_ACC_CAM2.ethg$o[6].channel ber 0
attr mutable ""
par SmartSubstationTopology.TSN_B_ACC_CAM2.ethg$o[6].channel per 0
attr mutable ""
par SmartSubstationTopology.TSN_B.ethg$o[8].channel typename "\"EthChannel\""
par SmartSubstationTopology.TSN_B.ethg$o[8].channel disabled false
attr mutable ""
par SmartSubstationTopology.TSN_B.ethg$o[8].channel delay 0.0001s
attr mutable ""
attr unit s
par SmartSubstationTopology.TSN_B.ethg$o[8].channel datarate 1e+09bps
attr mutable ""
attr unit bps
par SmartSubstationTopology.TSN_B.ethg$o[8].channel ber 0
attr mutable ""
par SmartSubstationTopology.TSN_B.ethg$o[8].channel per 0
attr mutable ""
par SmartSubstationTopology.TSN_A.ethg$o[9].channel typename "\"WanChannel\""
par SmartSubstationTopology.TSN_A.ethg$o[9].channel disabled false
attr mutable ""
par SmartSubstationTopology.TSN_A.ethg$o[9].channel delay 0.002s
attr mutable ""
attr unit s
par SmartSubstationTopology.TSN_A.ethg$o[9].channel datarate 1e+08bps
attr mutable ""
attr unit bps
par SmartSubstationTopology.TSN_A.ethg$o[9].channel ber 0
attr mutable ""
par SmartSubstationTopology.TSN_A.ethg$o[9].channel per 0
attr mutable ""
par SmartSubstationTopology.borderGateway1.ethg$o[0].channel typename "\"WanChannel\""
par SmartSubstationTopology.borderGateway1.ethg$o[0].channel disabled false
attr mutable ""
par SmartSubstationTopology.borderGateway1.ethg$o[0].channel delay 0.002s
attr mutable ""
attr unit s
par SmartSubstationTopology.borderGateway1.ethg$o[0].channel datarate 1e+08bps
attr mutable ""
attr unit bps
par SmartSubstationTopology.borderGateway1.ethg$o[0].channel ber 0
attr mutable ""
par SmartSubstationTopology.borderGateway1.ethg$o[0].channel per 0
attr mutable ""
par SmartSubstationTopology.borderGateway1.pppg$o[0].channel typename "\"OTN_I_II_Channel\""
par SmartSubstationTopology.borderGateway1.pppg$o[0].channel disabled false
attr mutable ""
par SmartSubstationTopology.borderGateway1.pppg$o[0].channel delay 0.0005s
attr mutable ""
attr unit s
par SmartSubstationTopology.borderGateway1.pppg$o[0].channel datarate 5e+07bps
attr mutable ""
attr unit bps
par SmartSubstationTopology.borderGateway1.pppg$o[0].channel ber 0
attr mutable ""
par SmartSubstationTopology.borderGateway1.pppg$o[0].channel per 0
attr mutable ""
par SmartSubstationTopology.otnDevice.pppg$o[0].channel typename "\"OTN_I_II_Channel\""
par SmartSubstationTopology.otnDevice.pppg$o[0].channel disabled false
attr mutable ""
par SmartSubstationTopology.otnDevice.pppg$o[0].channel delay 0.0005s
attr mutable ""
attr unit s
par SmartSubstationTopology.otnDevice.pppg$o[0].channel datarate 5e+07bps
attr mutable ""
attr unit bps
par SmartSubstationTopology.otnDevice.pppg$o[0].channel ber 0
attr mutable ""
par SmartSubstationTopology.otnDevice.pppg$o[0].channel per 0
attr mutable ""
par SmartSubstationTopology.borderGateway1.pppg$o[1].channel typename "\"OTN_III_IV_Channel\""
par SmartSubstationTopology.borderGateway1.pppg$o[1].channel disabled false
attr mutable ""
par SmartSubstationTopology.borderGateway1.pppg$o[1].channel delay 0.0015s
attr mutable ""
attr unit s
par SmartSubstationTopology.borderGateway1.pppg$o[1].channel datarate 5e+07bps
attr mutable ""
attr unit bps
par SmartSubstationTopology.borderGateway1.pppg$o[1].channel ber 0
attr mutable ""
par SmartSubstationTopology.borderGateway1.pppg$o[1].channel per 0
attr mutable ""
par SmartSubstationTopology.otnDevice.pppg$o[1].channel typename "\"OTN_III_IV_Channel\""
par SmartSubstationTopology.otnDevice.pppg$o[1].channel disabled false
attr mutable ""
par SmartSubstationTopology.otnDevice.pppg$o[1].channel delay 0.0015s
attr mutable ""
attr unit s
par SmartSubstationTopology.otnDevice.pppg$o[1].channel datarate 5e+07bps
attr mutable ""
attr unit bps
par SmartSubstationTopology.otnDevice.pppg$o[1].channel ber 0
attr mutable ""
par SmartSubstationTopology.otnDevice.pppg$o[1].channel per 0
attr mutable ""
par SmartSubstationTopology.otnDevice.pppg$o[2].channel typename "\"OTN_I_II_Channel\""
par SmartSubstationTopology.otnDevice.pppg$o[2].channel disabled false
attr mutable ""
par SmartSubstationTopology.otnDevice.pppg$o[2].channel delay 0.0005s
attr mutable ""
attr unit s
par SmartSubstationTopology.otnDevice.pppg$o[2].channel datarate 5e+07bps
attr mutable ""
attr unit bps
par SmartSubstationTopology.otnDevice.pppg$o[2].channel ber 0
attr mutable ""
par SmartSubstationTopology.otnDevice.pppg$o[2].channel per 0
attr mutable ""
par SmartSubstationTopology.borderGateway2.pppg$o[0].channel typename "\"OTN_I_II_Channel\""
par SmartSubstationTopology.borderGateway2.pppg$o[0].channel disabled false
attr mutable ""
par SmartSubstationTopology.borderGateway2.pppg$o[0].channel delay 0.0005s
attr mutable ""
attr unit s
par SmartSubstationTopology.borderGateway2.pppg$o[0].channel datarate 5e+07bps
attr mutable ""
attr unit bps
par SmartSubstationTopology.borderGateway2.pppg$o[0].channel ber 0
attr mutable ""
par SmartSubstationTopology.borderGateway2.pppg$o[0].channel per 0
attr mutable ""
par SmartSubstationTopology.otnDevice.pppg$o[3].channel typename "\"OTN_III_IV_Channel\""
par SmartSubstationTopology.otnDevice.pppg$o[3].channel disabled false
attr mutable ""
par SmartSubstationTopology.otnDevice.pppg$o[3].channel delay 0.0015s
attr mutable ""
attr unit s
par SmartSubstationTopology.otnDevice.pppg$o[3].channel datarate 5e+07bps
attr mutable ""
attr unit bps
par SmartSubstationTopology.otnDevice.pppg$o[3].channel ber 0
attr mutable ""
par SmartSubstationTopology.otnDevice.pppg$o[3].channel per 0
attr mutable ""
par SmartSubstationTopology.borderGateway2.pppg$o[1].channel typename "\"OTN_III_IV_Channel\""
par SmartSubstationTopology.borderGateway2.pppg$o[1].channel disabled false
attr mutable ""
par SmartSubstationTopology.borderGateway2.pppg$o[1].channel delay 0.0015s
attr mutable ""
attr unit s
par SmartSubstationTopology.borderGateway2.pppg$o[1].channel datarate 5e+07bps
attr mutable ""
attr unit bps
par SmartSubstationTopology.borderGateway2.pppg$o[1].channel ber 0
attr mutable ""
par SmartSubstationTopology.borderGateway2.pppg$o[1].channel per 0
attr mutable ""
par SmartSubstationTopology.borderGateway2.ethg$o[0].channel typename "\"WanChannel\""
par SmartSubstationTopology.borderGateway2.ethg$o[0].channel disabled false
attr mutable ""
par SmartSubstationTopology.borderGateway2.ethg$o[0].channel delay 0.002s
attr mutable ""
attr unit s
par SmartSubstationTopology.borderGateway2.ethg$o[0].channel datarate 1e+08bps
attr mutable ""
attr unit bps
par SmartSubstationTopology.borderGateway2.ethg$o[0].channel ber 0
attr mutable ""
par SmartSubstationTopology.borderGateway2.ethg$o[0].channel per 0
attr mutable ""
par SmartSubstationTopology.TSN_B.ethg$o[9].channel typename "\"WanChannel\""
par SmartSubstationTopology.TSN_B.ethg$o[9].channel disabled false
attr mutable ""
par SmartSubstationTopology.TSN_B.ethg$o[9].channel delay 0.002s
attr mutable ""
attr unit s
[...]
attr title "packets transmitted, sum(packetBytes)"
scalar SmartSubstationTopology.otnDevice.ppp[3].ppp rcvdPkFromHl:count 0
attr interpolationmode none
attr recordingmode count
attr source packetReceivedFromUpper
attr title "packets received from higher layer, count"
scalar SmartSubstationTopology.otnDevice.ppp[3].ppp rcvdPkFromHl:sum(packetBytes) 0
attr interpolationmode none
attr recordingmode sum(packetBytes)
attr source packetReceivedFromUpper
attr title "packets received from higher layer, sum(packetBytes)"
scalar SmartSubstationTopology.otnDevice.ppp[3].ppp passedUpPk:count 0
attr interpolationmode none
attr recordingmode count
attr source packetSentToUpper
attr title "packets passed to higher layer, count"
scalar SmartSubstationTopology.otnDevice.ppp[3].ppp passedUpPk:sum(packetBytes) 0
attr interpolationmode none
attr recordingmode sum(packetBytes)
attr source packetSentToUpper
attr title "packets passed to higher layer, sum(packetBytes)"
scalar SmartSubstationTopology.otnDevice.ppp[3].ppp packetDropIncorrectlyReceived:count 0
attr interpolationmode none
attr recordingmode count
attr source packetDropReasonIsIncorrectlyReceived(packetDropped)
attr title "packet drop: incorrectly received, count"
scalar SmartSubstationTopology.otnDevice.ppp[3].ppp packetDropIncorrectlyReceived:sum(packetBytes) 0
attr interpolationmode none
attr recordingmode sum(packetBytes)
attr source packetDropReasonIsIncorrectlyReceived(packetDropped)
attr title "packet drop: incorrectly received, sum(packetBytes)"
scalar SmartSubstationTopology.otnDevice.ppp[3].ppp packetDropInterfaceDown:count 0
attr interpolationmode none
attr recordingmode count
attr source packetDropReasonIsInterfaceDown(packetDropped)
attr title "packet drop: interface down, count"
scalar SmartSubstationTopology.otnDevice.ppp[3].ppp packetDropInterfaceDown:sum(packetBytes) 0
attr interpolationmode none
attr recordingmode sum(packetBytes)
attr source packetDropReasonIsInterfaceDown(packetDropped)
attr title "packet drop: interface down, sum(packetBytes)"
scalar SmartSubstationTopology.otnDevice.ppp[3].ppp rxPkOk:count 0
attr interpolationmode none
attr recordingmode count
attr source rxPkOk
attr title "packets received OK, count"
scalar SmartSubstationTopology.otnDevice.ppp[3].ppp rxPkOk:sum(packetBytes) 0
attr interpolationmode none
attr recordingmode sum(packetBytes)
attr source rxPkOk
attr title "packets received OK, sum(packetBytes)"
scalar SmartSubstationTopology.otnDevice.ppp[3].ppp transmissionState:timeavg 0
attr interpolationmode sample-hold
attr recordingmode timeavg
attr source transmissionStateChanged
attr title "tx state, timeavg"
par SmartSubstationTopology.otnDevice.ppp[3] typename "\"inet.linklayer.ppp.PppInterface\""
par SmartSubstationTopology.otnDevice.ppp[3] displayStringTextFormat "\"%a (%i)\\n%m\""
par SmartSubstationTopology.otnDevice.ppp[3] recordPcap false
par SmartSubstationTopology.otnDevice.ppp[3] numPcapRecorders 0
par SmartSubstationTopology.otnDevice.ppp[3] interfaceTableModule "\"SmartSubstationTopology.otnDevice.interfaceTable\""
scalar SmartSubstationTopology.otnDevice.ppp[3] packetDropInterfaceDown:count 0
attr interpolationmode none
attr recordingmode count
attr source packetDropReasonIsInterfaceDown(packetDropped)
attr title "packet drops: interface down, count"
scalar SmartSubstationTopology.otnDevice.ppp[3] packetDropInterfaceDown:sum(packetBytes) 0
attr interpolationmode none
attr recordingmode sum(packetBytes)
attr source packetDropReasonIsInterfaceDown(packetDropped)
attr title "packet drops: interface down, sum(packetBytes)"
scalar SmartSubstationTopology.otnDevice.ppp[3] packetDropNoCarrier:count 0
attr interpolationmode none
attr recordingmode count
attr source packetDropReasonIsNoCarrier(packetDropped)
attr title "packet drops: no carrier, count"
scalar SmartSubstationTopology.otnDevice.ppp[3] packetDropNoCarrier:sum(packetBytes) 0
attr interpolationmode none
attr recordingmode sum(packetBytes)
attr source packetDropReasonIsNoCarrier(packetDropped)
attr title "packet drops: no carrier, sum(packetBytes)"
par SmartSubstationTopology.otnDevice.ipv4.transportIn.channel typename "\"ned.IdealChannel\""
par SmartSubstationTopology.otnDevice.ipv4.up.out[0].channel typename "\"ned.IdealChannel\""
par SmartSubstationTopology.otnDevice.ipv4.lp.out[2].channel typename "\"ned.IdealChannel\""
par SmartSubstationTopology.otnDevice.ipv4.ifIn.channel typename "\"ned.IdealChannel\""
par SmartSubstationTopology.otnDevice.ipv4.configurator typename "\"inet.networklayer.configurator.ipv4.Ipv4NodeConfigurator\""
par SmartSubstationTopology.otnDevice.ipv4.configurator interfaceTableModule "\"SmartSubstationTopology.otnDevice.interfaceTable\""
par SmartSubstationTopology.otnDevice.ipv4.configurator routingTableModule "\"SmartSubstationTopology.otnDevice.ipv4.routingTable\""
par SmartSubstationTopology.otnDevice.ipv4.configurator networkConfiguratorModule "\"configurator\""
par SmartSubstationTopology.otnDevice.ipv4.configurator configureRoutingTable true
par SmartSubstationTopology.otnDevice.ipv4.routingTable typename "\"inet.networklayer.ipv4.Ipv4RoutingTable\""
par SmartSubstationTopology.otnDevice.ipv4.routingTable interfaceTableModule "\"SmartSubstationTopology.otnDevice.interfaceTable\""
par SmartSubstationTopology.otnDevice.ipv4.routingTable routerId "\"auto\""
par SmartSubstationTopology.otnDevice.ipv4.routingTable netmaskRoutes "\"*\""
par SmartSubstationTopology.otnDevice.ipv4.routingTable forwarding true
par SmartSubstationTopology.otnDevice.ipv4.routingTable multicastForwarding false
par SmartSubstationTopology.otnDevice.ipv4.routingTable useAdminDist false
par SmartSubstationTopology.otnDevice.ipv4.routingTable routingFile "\"\""
par SmartSubstationTopology.otnDevice.ipv4.natTable typename "\"inet.networklayer.ipv4.Ipv4NatTable\""
par SmartSubstationTopology.otnDevice.ipv4.natTable networkProtocolModule "\"^.ip\""
par SmartSubstationTopology.otnDevice.ipv4.natTable config "<config/> at content:1"
par SmartSubstationTopology.otnDevice.ipv4.up typename "\"inet.common.MessageDispatcher\""
par SmartSubstationTopology.otnDevice.ipv4.up displayStringTextFormat "\"processed %p pk (%l)\""
par SmartSubstationTopology.otnDevice.ipv4.up forwardServiceRegistration true
par SmartSubstationTopology.otnDevice.ipv4.up forwardProtocolRegistration true
par SmartSubstationTopology.otnDevice.ipv4.igmp typename "\"inet.networklayer.ipv4.Igmpv2\""
par SmartSubstationTopology.otnDevice.ipv4.igmp interfaceTableModule "\"SmartSubstationTopology.otnDevice.interfaceTable\""
par SmartSubstationTopology.otnDevice.ipv4.igmp routingTableModule "\"SmartSubstationTopology.otnDevice.ipv4.routingTable\""
par SmartSubstationTopology.otnDevice.ipv4.igmp crcMode "\"declared\""
attr enum declared,computed
par SmartSubstationTopology.otnDevice.ipv4.igmp enabled true
par SmartSubstationTopology.otnDevice.ipv4.igmp robustnessVariable 2
par SmartSubstationTopology.otnDevice.ipv4.igmp queryInterval 125s
attr unit s
par SmartSubstationTopology.otnDevice.ipv4.igmp queryResponseInterval 10s
attr unit s
par SmartSubstationTopology.otnDevice.ipv4.igmp groupMembershipInterval 260s
attr unit s
par SmartSubstationTopology.otnDevice.ipv4.igmp otherQuerierPresentInterval 255s
attr unit s
par SmartSubstationTopology.otnDevice.ipv4.igmp startupQueryInterval 31.25s
attr unit s
par SmartSubstationTopology.otnDevice.ipv4.igmp startupQueryCount 2
par SmartSubstationTopology.otnDevice.ipv4.igmp lastMemberQueryInterval 1s
attr unit s
par SmartSubstationTopology.otnDevice.ipv4.igmp lastMemberQueryCount 2
par SmartSubstationTopology.otnDevice.ipv4.igmp unsolicitedReportInterval 10s
attr unit s
par SmartSubstationTopology.otnDevice.ipv4.icmp typename "\"inet.networklayer.ipv4.Icmp\""
par SmartSubstationTopology.otnDevice.ipv4.icmp interfaceTableModule "\"SmartSubstationTopology.otnDevice.interfaceTable\""
par SmartSubstationTopology.otnDevice.ipv4.icmp routingTableModule "\"SmartSubstationTopology.otnDevice.ipv4.routingTable\""
par SmartSubstationTopology.otnDevice.ipv4.icmp crcMode "\"declared\""
attr enum declared,computed
attr mutable ""
par SmartSubstationTopology.otnDevice.ipv4.icmp quoteLength 8B
attr mutable ""
attr unit B
par SmartSubstationTopology.otnDevice.ipv4.mp typename "\"inet.common.MessageDispatcher\""
par SmartSubstationTopology.otnDevice.ipv4.mp displayStringTextFormat "\"processed %p pk (%l)\""
par SmartSubstationTopology.otnDevice.ipv4.mp forwardServiceRegistration true
par SmartSubstationTopology.otnDevice.ipv4.mp forwardProtocolRegistration true
par SmartSubstationTopology.otnDevice.ipv4.ip typename "\"inet.networklayer.ipv4.Ipv4\""
par SmartSubstationTopology.otnDevice.ipv4.ip interfaceTableModule "\"SmartSubstationTopology.otnDevice.interfaceTable\""
par SmartSubstationTopology.otnDevice.ipv4.ip routingTableModule "\"SmartSubstationTopology.otnDevice.ipv4.routingTable\""
par SmartSubstationTopology.otnDevice.ipv4.ip arpModule "\"SmartSubstationTopology.otnDevice.ipv4.arp\""
par SmartSubstationTopology.otnDevice.ipv4.ip icmpModule "\"SmartSubstationTopology.otnDevice.ipv4.icmp\""
par SmartSubstationTopology.otnDevice.ipv4.ip crcMode "\"declared\""
attr enum declared,computed
par SmartSubstationTopology.otnDevice.ipv4.ip timeToLive 32
par SmartSubstationTopology.otnDevice.ipv4.ip multicastTimeToLive 32
par SmartSubstationTopology.otnDevice.ipv4.ip fragmentTimeout 60s
attr unit s
par SmartSubstationTopology.otnDevice.ipv4.ip limitedBroadcast false
par SmartSubstationTopology.otnDevice.ipv4.ip directBroadcastInterfaces "\"\""
scalar SmartSubstationTopology.otnDevice.ipv4.ip packetDropAddressResolutionFailed:count 0
attr interpolationmode none
attr recordingmode count
attr source packetDropReasonIsAddressResolutionFailed(packetDropped)
attr title "packet drop: address resolution failed, count"
scalar SmartSubstationTopology.otnDevice.ipv4.ip packetDropAddressResolutionFailed:sum(packetBytes) 0
attr interpolationmode none
attr recordingmode sum(packetBytes)
attr source packetDropReasonIsAddressResolutionFailed(packetDropped)
attr title "packet drop: address resolution failed, sum(packetBytes)"
scalar SmartSubstationTopology.otnDevice.ipv4.ip packetDropHopLimitReached:count 0
attr interpolationmode none
attr recordingmode count
attr source packetDropReasonIsHopLimitReached(packetDropped)
attr title "packet drop: hop limit reached, count"
scalar SmartSubstationTopology.otnDevice.ipv4.ip packetDropHopLimitReached:sum(packetBytes) 0
attr interpolationmode none
attr recordingmode sum(packetBytes)
attr source packetDropReasonIsHopLimitReached(packetDropped)
attr title "packet drop: hop limit reached, sum(packetBytes)"
scalar SmartSubstationTopology.otnDevice.ipv4.ip packetDropForwardingDisabled:count 0
attr interpolationmode none
attr recordingmode count
attr source packetDropReasonIsForwardingDisabled(packetDropped)
attr title "packet drop: forwarding disabled, count"
scalar SmartSubstationTopology.otnDevice.ipv4.ip packetDropForwardingDisabled:sum(packetBytes) 0
attr interpolationmode none
attr recordingmode sum(packetBytes)
attr source packetDropReasonIsForwardingDisabled(packetDropped)
attr title "packet drop: forwarding disabled, sum(packetBytes)"
scalar SmartSubstationTopology.otnDevice.ipv4.ip packetDropNoInterfaceFound:count 0
attr interpolationmode none
attr recordingmode count
attr source packetDropReasonIsNoInterfaceFound(packetDropped)
attr title "packet drop: no interface found, count"
scalar SmartSubstationTopology.otnDevice.ipv4.ip packetDropNoInterfaceFound:sum(packetBytes) 0
attr interpolationmode none
attr recordingmode sum(packetBytes)
attr source packetDropReasonIsNoInterfaceFound(packetDropped)
attr title "packet drop: no interface found, sum(packetBytes)"
scalar SmartSubstationTopology.otnDevice.ipv4.ip packetDropNoRouteFound:count 0
attr interpolationmode none
attr recordingmode count
attr source packetDropReasonIsNoRouteFound(packetDropped)
attr title "packet drop: no route found, count"
scalar SmartSubstationTopology.otnDevice.ipv4.ip packetDropNoRouteFound:sum(packetBytes) 0
attr interpolationmode none
attr recordingmode sum(packetBytes)
attr source packetDropReasonIsNoRouteFound(packetDropped)
attr title "packet drop: no route found, sum(packetBytes)"
scalar SmartSubstationTopology.otnDevice.ipv4.ip packetDropUndefined:count 0
attr interpolationmode none
attr recordingmode count
attr source packetDropReasonIsUndefined(packetDropped)
attr title "packet drop: undefined, count"
scalar SmartSubstationTopology.otnDevice.ipv4.ip packetDropUndefined:sum(packetBytes) 0
attr interpolationmode none
attr recordingmode sum(packetBytes)
attr source packetDropReasonIsUndefined(packetDropped)
attr title "packet drop: undefined, sum(packetBytes)"
par SmartSubstationTopology.otnDevice.ipv4.arp typename "\"inet.networklayer.arp.ipv4.Arp\""
par SmartSubstationTopology.otnDevice.ipv4.arp interfaceTableModule "\"SmartSubstationTopology.otnDevice.interfaceTable\""
par SmartSubstationTopology.otnDevice.ipv4.arp routingTableModule "\"SmartSubstationTopology.otnDevice.ipv4.routingTable\""
par SmartSubstationTopology.otnDevice.ipv4.arp retryTimeout 1s
attr unit s
par SmartSubstationTopology.otnDevice.ipv4.arp retryCount 3
par SmartSubstationTopology.otnDevice.ipv4.arp cacheTimeout 120s
attr unit s
par SmartSubstationTopology.otnDevice.ipv4.arp proxyArpInterfaces "\"*\""
scalar SmartSubstationTopology.otnDevice.ipv4.arp arpReplySent:count 0
attr recordingmode count
attr source arpReplySent
attr title "ARP replies sent, count"
scalar SmartSubstationTopology.otnDevice.ipv4.arp arpReplySent:sum(packetBytes) 0
attr recordingmode sum(packetBytes)
attr source arpReplySent
attr title "ARP replies sent, sum(packetBytes)"
scalar SmartSubstationTopology.otnDevice.ipv4.arp arpRequestSent:count 0
attr recordingmode count
attr source arpRequestSent
attr title "ARP request sent, count"
scalar SmartSubstationTopology.otnDevice.ipv4.arp arpRequestSent:sum(packetBytes) 0
attr recordingmode sum(packetBytes)
attr source arpRequestSent
attr title "ARP request sent, sum(packetBytes)"
scalar SmartSubstationTopology.otnDevice.ipv4.arp arpResolutionFailed:count 0
attr recordingmode count
attr title "ARP failed resolutions, count"
scalar SmartSubstationTopology.otnDevice.ipv4.arp arpResolutionCompleted:count 0
attr recordingmode count
attr title "ARP completed resolutions, count"
scalar SmartSubstationTopology.otnDevice.ipv4.arp arpResolutionInitiated:count 0
attr recordingmode count
attr title "ARP initiated resolutions, count"
par SmartSubstationTopology.otnDevice.ipv4.lp typename "\"inet.common.MessageDispatcher\""
par SmartSubstationTopology.otnDevice.ipv4.lp displayStringTextFormat "\"processed %p pk (%l)\""
par SmartSubstationTopology.otnDevice.ipv4.lp forwardServiceRegistration true
par SmartSubstationTopology.otnDevice.ipv4.lp forwardProtocolRegistration true
par SmartSubstationTopology.otnDevice.ipv4 typename "\"inet.networklayer.ipv4.Ipv4NetworkLayer\""
par SmartSubstationTopology.otnDevice.ipv4 forwarding true
par SmartSubstationTopology.otnDevice.ipv4 multicastForwarding false
par SmartSubstationTopology.otnDevice.ipv4 interfaceTableModule "\"SmartSubstationTopology.otnDevice.interfaceTable\""
par SmartSubstationTopology.otnDevice.ipv4 displayStringTextFormat "\"%i\""
par SmartSubstationTopology.otnDevice.nl typename "\"inet.common.MessageDispatcher\""
par SmartSubstationTopology.otnDevice.nl displayStringTextFormat "\"processed %p pk (%l)\""
par SmartSubstationTopology.otnDevice.nl forwardServiceRegistration true
par SmartSubstationTopology.otnDevice.nl forwardProtocolRegistration true
par SmartSubstationTopology.otnDevice.udp typename "\"inet.transportlayer.udp.Udp\""
par SmartSubstationTopology.otnDevice.udp interfaceTableModule "\"SmartSubstationTopology.otnDevice.interfaceTable\""
par SmartSubstationTopology.otnDevice.udp icmpModule "\"^.ipv4.icmp\""
par SmartSubstationTopology.otnDevice.udp icmpv6Module "\"^.ipv6.icmpv6\""
par SmartSubstationTopology.otnDevice.udp crcMode "\"declared\""
attr enum disabled,declared,computed
par SmartSubstationTopology.otnDevice.udp defaultMulticastLoop true
scalar SmartSubstationTopology.otnDevice.udp packetReceived:count 0
attr interpolationmode none
attr recordingmode count
attr source packetReceived
attr title "packets received, count"
scalar SmartSubstationTopology.otnDevice.udp packetReceived:sum(packetBytes) 0
attr interpolationmode none
attr recordingmode sum(packetBytes)
attr source packetReceived
attr title "packets received, sum(packetBytes)"
scalar SmartSubstationTopology.otnDevice.udp packetSent:count 0
attr interpolationmode none
attr recordingmode count
attr source packetSent
attr title "packets sent, count"
scalar SmartSubstationTopology.otnDevice.udp packetSent:sum(packetBytes) 0
attr interpolationmode none
attr recordingmode sum(packetBytes)
attr source packetSent
attr title "packets sent, sum(packetBytes)"
scalar SmartSubstationTopology.otnDevice.udp passedUpPk:count 0
attr interpolationmode none
attr recordingmode count
attr source packetSentToUpper
attr title "packets passed up, count"
scalar SmartSubstationTopology.otnDevice.udp droppedPkWrongPort:count 0
attr interpolationmode none
attr recordingmode count
attr source packetDropReasonIsNoPortFound(packetDropped)
attr title "packets dropped (wrong port), count"
scalar SmartSubstationTopology.otnDevice.udp droppedPkBadChecksum:count 0
attr interpolationmode none
attr recordingmode count
attr source packetDropReasonIsIncorrectlyReceived(packetDropped)
attr title "packets dropped (checksum error), count"
par SmartSubstationTopology.otnDevice.tn typename "\"inet.common.MessageDispatcher\""
par SmartSubstationTopology.otnDevice.tn displayStringTextFormat "\"processed %p pk (%l)\""
par SmartSubstationTopology.otnDevice.tn forwardServiceRegistration true
par SmartSubstationTopology.otnDevice.tn forwardProtocolRegistration true
par SmartSubstationTopology.otnDevice.at typename "\"inet.common.MessageDispatcher\""
par SmartSubstationTopology.otnDevice.at displayStringTextFormat "\"processed %p pk (%l)\""
par SmartSubstationTopology.otnDevice.at forwardServiceRegistration true
par SmartSubstationTopology.otnDevice.at forwardProtocolRegistration true
par SmartSubstationTopology.otnDevice typename "\"inet.node.inet.Router\""
par SmartSubstationTopology.otnDevice hasStatus false
par SmartSubstationTopology.otnDevice osgModel "\"\""
par SmartSubstationTopology.otnDevice osgModelColor "\"\""
par SmartSubstationTopology.otnDevice canvasImage "\"\""
par SmartSubstationTopology.otnDevice canvasImageColor "\"\""
par SmartSubstationTopology.otnDevice recordPcap false
par SmartSubstationTopology.otnDevice numPcapRecorders 0
par SmartSubstationTopology.otnDevice numLoInterfaces 1
par SmartSubstationTopology.otnDevice numWlanInterfaces 0
par SmartSubstationTopology.otnDevice numEthInterfaces 0
par SmartSubstationTopology.otnDevice numPppInterfaces 0
par SmartSubstationTopology.otnDevice numTunInterfaces 0
par SmartSubstationTopology.otnDevice numVirtInterfaces 0
par SmartSubstationTopology.otnDevice fcsMode "\"declared\""
attr enum declared,computed
par SmartSubstationTopology.otnDevice hasIpv4 true
par SmartSubstationTopology.otnDevice hasIpv6 false
par SmartSubstationTopology.otnDevice hasGn false
par SmartSubstationTopology.otnDevice forwarding true
par SmartSubstationTopology.otnDevice multicastForwarding false
par SmartSubstationTopology.otnDevice hasUdp true
par SmartSubstationTopology.otnDevice hasTcp false
par SmartSubstationTopology.otnDevice hasSctp false
par SmartSubstationTopology.otnDevice numApps 0
par SmartSubstationTopology.otnDevice hasEigrp false
par SmartSubstationTopology.otnDevice hasOspf false
par SmartSubstationTopology.otnDevice hasRip false
par SmartSubstationTopology.otnDevice hasBgp false
par SmartSubstationTopology.otnDevice hasPim false
par SmartSubstationTopology.otnDevice hasDhcp false
par SmartSubstationTopology typename "\"SmartSubstationTopology\""

