file 983888 1769485219                                          
version 3
run General-0-20260127-11:38:22-10156
attr configname General
attr datetime 20260127-11:38:22
attr datetimef 20260127-113822
attr experiment General
attr inifile demo.ini
attr iterationvars ""
attr iterationvarsd ""
attr iterationvarsf ""
attr measurement ""
attr network SmartSubstationTopology
attr processid 10156
attr repetition 0
attr replication #0
attr resultdir results
attr runnumber 0
attr seedset 0
config image-path ../inet4.5/images
config network SmartSubstationTopology
config sim-time-limit 10s
config ned-path .;src;../inet4.5/src
config *.configurator.typename IPv4NetworkConfigurator
config **.hasIpv4 true
config **.hasUdp true
config **.hasTcp false
config *.borderGateway1.hasIpv4 true
config *.borderGateway1.forwarding true
config *.borderGateway2.hasIpv4 true
config *.borderGateway2.forwarding true
config *.otnDevice.hasIpv4 true
config *.otnDevice.forwarding true
config **.eth[*].typename EthernetInterface
config **.ppp[*].typename PppInterface
config *.MU_A.numApps 1
config *.MU_A.app[0].typename src.apps.SvGeneratorApp
config *.MU_A.app[0].localDestAddress "\"Protection_A\""
config *.MU_A.app[0].localDestPort 2000
config *.MU_A.app[0].remoteDestAddress "\"Protection_B\""
config *.MU_A.app[0].remoteDestPort 2001
config *.MU_A.app[0].messageLength 140B
config *.MU_A.app[0].sendInterval 250us
config *.MU_A.app[0].currentBase 100A
config *.MU_A.app[0].noiseStd 1A
config *.Protection_A.numApps 1
config *.Protection_A.app[0].typename src.apps.DifferentialProtectionApp
config *.Protection_A.app[0].localPort 2000
config *.Protection_A.app[0].remotePort 2001
config *.Protection_A.app[0].threshold 5A
config *.Protection_A.app[0].gooseDestLocal "\"IT_A\""
config *.Protection_A.app[0].gooseDestRemote "\"IT_B\""
config *.Protection_A.app[0].goosePort 3000
config *.IT_A.numApps 1
config *.IT_A.app[0].typename UdpSink
config *.IT_A.app[0].localPort 3000
config *.IT_A.app[0].verbose true
config *.IT_B.numApps 1
config *.IT_B.app[0].typename UdpSink
config *.IT_B.app[0].localPort 3000
config *.IT_B.app[0].verbose true
config *.MU_B.numApps 1
config *.MU_B.app[0].typename src.apps.SvGeneratorApp
config *.MU_B.app[0].localDestAddress "\"Protection_B\""
config *.MU_B.app[0].localDestPort 2000
config *.MU_B.app[0].remoteDestAddress "\"Protection_A\""
config *.MU_B.app[0].remoteDestPort 2001
config *.MU_B.app[0].messageLength 140B
config *.MU_B.app[0].sendInterval 250us
config *.MU_B.app[0].currentBase 100A
config *.MU_B.app[0].noiseStd 1A
config *.BusProtection_A.numApps 1
config *.BusProtection_A.app[0].typename UdpSink
config *.BusProtection_A.app[0].localPort 5000
config *.BusProtection_A.app[0].verbose true
config *.Protection_B.numApps 1
config *.Protection_B.app[0].typename src.apps.DifferentialProtectionApp
config *.Protection_B.app[0].localPort 2000
config *.Protection_B.app[0].remotePort 2001
config *.Protection_B.app[0].threshold 5A
config *.Protection_B.app[0].gooseDestLocal "\"IT_B\""
config *.Protection_B.app[0].gooseDestRemote "\"IT_A\""
config *.Protection_B.app[0].goosePort 3000
config *.BusProtection_MU1_A.numApps 1
config *.BusProtection_MU1_A.app[0].typename UdpBasicApp
config *.BusProtection_MU1_A.app[0].localPort 5101
config *.BusProtection_MU1_A.app[0].destAddresses "\"BusProtection_A\""
config *.BusProtection_MU1_A.app[0].destPort 5000
config *.BusProtection_MU1_A.app[0].messageLength 140B
config *.BusProtection_MU1_A.app[0].sendInterval 250us
config *.BusProtection_MU1_A.app[0].startTime 0.3s
config *.BusProtection_MU1_A.app[0].packetName "\"Bus_SV_1\""
config *.BusProtection_MU1_A.app[0].dscp 56
config *.BusProtection_MU1_A.app[0].verbose true
config *.BusProtection_MU2_A.numApps 1
config *.BusProtection_MU2_A.app[0].typename UdpBasicApp
config *.BusProtection_MU2_A.app[0].localPort 5102
config *.BusProtection_MU2_A.app[0].destAddresses "\"BusProtection_A\""
config *.BusProtection_MU2_A.app[0].destPort 5000
config *.BusProtection_MU2_A.app[0].messageLength 140B
config *.BusProtection_MU2_A.app[0].sendInterval 250us
config *.BusProtection_MU2_A.app[0].startTime 0.4s
config *.BusProtection_MU2_A.app[0].packetName "\"Bus_SV_2\""
config *.BusProtection_MU2_A.app[0].dscp 56
config *.BusProtection_MU2_A.app[0].verbose true
config *.BusProtection_MU3_A.numApps 1
config *.BusProtection_MU3_A.app[0].typename UdpBasicApp
config *.BusProtection_MU3_A.app[0].localPort 5103
config *.BusProtection_MU3_A.app[0].destAddresses "\"BusProtection_A\""
config *.BusProtection_MU3_A.app[0].destPort 5000
config *.BusProtection_MU3_A.app[0].messageLength 140B
config *.BusProtection_MU3_A.app[0].sendInterval 250us
config *.BusProtection_MU3_A.app[0].startTime 0.5s
config *.BusProtection_MU3_A.app[0].packetName "\"Bus_SV_3\""
config *.BusProtection_MU3_A.app[0].dscp 56
config *.BusProtection_MU3_A.app[0].verbose true
config *.BusProtection_B.numApps 1
config *.BusProtection_B.app[0].typename UdpSink
config *.BusProtection_B.app[0].localPort 5000
config *.BusProtection_B.app[0].verbose true
config *.BusProtection_MU1_B.numApps 1
config *.BusProtection_MU1_B.app[0].typename UdpBasicApp
config *.BusProtection_MU1_B.app[0].localPort 5101
config *.BusProtection_MU1_B.app[0].destAddresses "\"BusProtection_B\""
config *.BusProtection_MU1_B.app[0].destPort 5000
config *.BusProtection_MU1_B.app[0].messageLength 140B
config *.BusProtection_MU1_B.app[0].sendInterval 250us
config *.BusProtection_MU1_B.app[0].startTime 0.3s
config *.BusProtection_MU1_B.app[0].packetName "\"Bus_SV_1\""
config *.BusProtection_MU1_B.app[0].dscp 56
config *.BusProtection_MU1_B.app[0].verbose true
config *.BusProtection_MU2_B.numApps 1
config *.BusProtection_MU2_B.app[0].typename UdpBasicApp
config *.BusProtection_MU2_B.app[0].localPort 5102
config *.BusProtection_MU2_B.app[0].destAddresses "\"BusProtection_B\""
config *.BusProtection_MU2_B.app[0].destPort 5000
config *.BusProtection_MU2_B.app[0].messageLength 140B
config *.BusProtection_MU2_B.app[0].sendInterval 250us
config *.BusProtection_MU2_B.app[0].startTime 0.4s
config *.BusProtection_MU2_B.app[0].packetName "\"Bus_SV_2\""
config *.BusProtection_MU2_B.app[0].dscp 56
config *.BusProtection_MU2_B.app[0].verbose true
config *.BusProtection_MU3_B.numApps 1
config *.BusProtection_MU3_B.app[0].typename UdpBasicApp
config *.BusProtection_MU3_B.app[0].localPort 5103
config *.BusProtection_MU3_B.app[0].destAddresses "\"BusProtection_B\""
config *.BusProtection_MU3_B.app[0].destPort 5000
config *.BusProtection_MU3_B.app[0].messageLength 140B
config *.BusProtection_MU3_B.app[0].sendInterval 250us
config *.BusProtection_MU3_B.app[0].startTime 0.5s
config *.BusProtection_MU3_B.app[0].packetName "\"Bus_SV_3\""
config *.BusProtection_MU3_B.app[0].dscp 56
config *.BusProtection_MU3_B.app[0].verbose true
config *.Camera*_A.numApps 2
config *.Camera*_A.app[0].typename UdpBasicApp
config *.Camera*_A.app[0].destAddresses "\"MonitoringCenter_A\""
config *.Camera*_A.app[0].destPort 6000
config *.Camera*_A.app[0].messageLength 1500B
config *.Camera*_A.app[0].sendInterval 33.33ms
config *.Camera*_A.app[0].startTime "uniform(0.5s, 1s)"
config *.Camera*_A.app[0].packetName "\"Video_Stream\""
config *.Camera*_A.app[0].dscp 0
config *.Camera*_A.app[0].verbose true
config *.Camera*_A.app[1].typename UdpBasicApp
config *.Camera*_A.app[1].localPort 6100
config *.Camera*_A.app[1].destAddresses "\"MonitoringCenter_Main\""
config *.Camera*_A.app[1].destPort 6000
config *.Camera*_A.app[1].messageLength 1500B
config *.Camera*_A.app[1].sendInterval 33.33ms
config *.Camera*_A.app[1].startTime "uniform(0.5s, 1s)"
config *.Camera*_A.app[1].packetName "\"Video_Stream_Main\""
config *.Camera*_A.app[1].dscp 0
config *.Camera*_A.app[1].verbose true
config *.Camera*_B.numApps 2
config *.Camera*_B.app[0].typename UdpBasicApp
config *.Camera*_B.app[0].destAddresses "\"MonitoringCenter_B\""
config *.Camera*_B.app[0].destPort 6000
config *.Camera*_B.app[0].messageLength 1500B
config *.Camera*_B.app[0].sendInterval 33.33ms
config *.Camera*_B.app[0].startTime "uniform(0.5s, 1s)"
config *.Camera*_B.app[0].packetName "\"Video_Stream\""
config *.Camera*_B.app[0].dscp 0
config *.Camera*_B.app[0].verbose true
config *.Camera*_B.app[1].typename UdpBasicApp
config *.Camera*_B.app[1].localPort 6100
config *.Camera*_B.app[1].destAddresses "\"MonitoringCenter_Main\""
config *.Camera*_B.app[1].destPort 6000
config *.Camera*_B.app[1].messageLength 1500B
config *.Camera*_B.app[1].sendInterval 33.33ms
config *.Camera*_B.app[1].startTime "uniform(0.5s, 1s)"
config *.Camera*_B.app[1].packetName "\"Video_Stream_Main\""
config *.Camera*_B.app[1].dscp 0
config *.Camera*_B.app[1].verbose true
config *.MonitoringCenter_Main.numApps 2
config *.MonitoringCenter_Main.app[0].typename UdpSink
config *.MonitoringCenter_Main.app[0].localPort 6000
config *.MonitoringCenter_Main.app[0].verbose true
config *.MonitoringCenter_Main.app[1].typename UdpSink
config *.MonitoringCenter_Main.app[1].localPort 9002
config *.MonitoringCenter_Main.app[1].verbose true
config *.VoIP1_A.numApps 1
config *.VoIP1_A.app[0].typename UdpBasicApp
config *.VoIP1_A.app[0].localPort 7001
config *.VoIP1_A.app[0].destAddresses "\"MonitoringCenter_A\""
config *.VoIP1_A.app[0].destPort 7101
config *.VoIP1_A.app[0].messageLength 200B
config *.VoIP1_A.app[0].sendInterval 20ms
config *.VoIP1_A.app[0].startTime 0.6s
config *.VoIP1_A.app[0].packetName "\"VoIP_Stream\""
config *.VoIP1_A.app[0].dscp 40
config *.VoIP1_A.app[0].verbose true
config *.VoIP2_A.numApps 1
config *.VoIP2_A.app[0].typename UdpBasicApp
config *.VoIP2_A.app[0].localPort 7002
config *.VoIP2_A.app[0].destAddresses "\"MonitoringCenter_A\""
config *.VoIP2_A.app[0].destPort 7102
config *.VoIP2_A.app[0].messageLength 200B
config *.VoIP2_A.app[0].sendInterval 20ms
config *.VoIP2_A.app[0].startTime 0.7s
config *.VoIP2_A.app[0].packetName "\"VoIP_Stream\""
config *.VoIP2_A.app[0].dscp 40
config *.VoIP2_A.app[0].verbose true
config *.VoIP1_B.numApps 1
config *.VoIP1_B.app[0].typename UdpBasicApp
config *.VoIP1_B.app[0].localPort 8001
config *.VoIP1_B.app[0].destAddresses "\"MonitoringCenter_B\""
config *.VoIP1_B.app[0].destPort 7101
config *.VoIP1_B.app[0].messageLength 200B
config *.VoIP1_B.app[0].sendInterval 20ms
config *.VoIP1_B.app[0].startTime 0.8s
config *.VoIP1_B.app[0].packetName "\"VoIP_Stream\""
config *.VoIP1_B.app[0].dscp 40
config *.VoIP1_B.app[0].verbose true
config *.VoIP2_B.numApps 1
config *.VoIP2_B.app[0].typename UdpBasicApp
config *.VoIP2_B.app[0].localPort 8002
config *.VoIP2_B.app[0].destAddresses "\"MonitoringCenter_B\""
config *.VoIP2_B.app[0].destPort 7102
config *.VoIP2_B.app[0].messageLength 200B
config *.VoIP2_B.app[0].sendInterval 20ms
config *.VoIP2_B.app[0].startTime 0.9s
config *.VoIP2_B.app[0].packetName "\"VoIP_Stream\""
config *.VoIP2_B.app[0].dscp 40
config *.VoIP2_B.app[0].verbose true
config *.MonitoringCenter_A.numApps 5
config *.MonitoringCenter_A.app[0].typename UdpSink
config *.MonitoringCenter_A.app[0].localPort 6000
config *.MonitoringCenter_A.app[0].verbose true
config *.MonitoringCenter_A.app[1].typename UdpBasicApp
config *.MonitoringCenter_A.app[1].localPort 9001
config *.MonitoringCenter_A.app[1].destAddresses "\"MonitoringCenter_Main\""
config *.MonitoringCenter_A.app[1].destPort 9002
config *.MonitoringCenter_A.app[1].messageLength "int(normal(1500B, 500B))"
config *.MonitoringCenter_A.app[1].sendInterval exponential(0.1s)
config *.MonitoringCenter_A.app[1].startTime 1s
config *.MonitoringCenter_A.app[1].packetName "\"OM_Data_Burst_A\""
config *.MonitoringCenter_A.app[1].dscp 0
config *.MonitoringCenter_A.app[1].verbose true
config *.MonitoringCenter_A.app[2].typename UdpSink
config *.MonitoringCenter_A.app[2].localPort 9004
config *.MonitoringCenter_A.app[2].verbose true
config *.MonitoringCenter_A.app[3].typename UdpSink
config *.MonitoringCenter_A.app[3].localPort 7101
config *.MonitoringCenter_A.app[3].verbose true
config *.MonitoringCenter_A.app[4].typename UdpSink
config *.MonitoringCenter_A.app[4].localPort 7102
config *.MonitoringCenter_A.app[4].verbose true
config *.MonitoringCenter_B.numApps 5
config *.MonitoringCenter_B.app[0].typename UdpSink
config *.MonitoringCenter_B.app[0].localPort 6000
config *.MonitoringCenter_B.app[0].verbose true
config *.MonitoringCenter_B.app[1].typename UdpSink
config *.MonitoringCenter_B.app[1].localPort 9002
config *.MonitoringCenter_B.app[1].verbose true
config *.MonitoringCenter_B.app[2].typename UdpBasicApp
config *.MonitoringCenter_B.app[2].localPort 9003
config *.MonitoringCenter_B.app[2].destAddresses "\"MonitoringCenter_Main\""
config *.MonitoringCenter_B.app[2].destPort 9004
config *.MonitoringCenter_B.app[2].messageLength "int(normal(1500B, 500B))"
config *.MonitoringCenter_B.app[2].sendInterval exponential(0.1s)
config *.MonitoringCenter_B.app[2].startTime 1.2s
config *.MonitoringCenter_B.app[2].packetName "\"OM_Data_Burst_B\""
config *.MonitoringCenter_B.app[2].dscp 0
config *.MonitoringCenter_B.app[2].verbose true
config *.MonitoringCenter_B.app[3].typename UdpSink
config *.MonitoringCenter_B.app[3].localPort 7101
config *.MonitoringCenter_B.app[3].verbose true
config *.MonitoringCenter_B.app[4].typename UdpSink
config *.MonitoringCenter_B.app[4].localPort 7102
config *.MonitoringCenter_B.app[4].verbose true
config **.app[*].source.packetSentSignal true
config **.app[*].sink.packetReceivedSignal true
config **.app[*].sink.endToEndDelayStatistic.record true
config **.app[*].sink.delayHistogram.record true
config **.app[*].sink.numReceivedStatistic.record true
config **.app[*].sink.throughputStatistic.record true
config **.app[*].sink.jitterStatistic.record true
config **.app[*].sink.jitterHistogram.record true
config *.VoIP*_A.app[*].sink.delayThreshold 150ms
config *.VoIP*_A.app[*].sink.jitterThreshold 30ms
config *.VoIP*_B.app[*].sink.delayThreshold 150ms
config *.VoIP*_B.app[*].sink.jitterThreshold 30ms
config *.MU_A.app[0].sink.delayThreshold 30ms
config *.MU_A.app[0].sink.jitterThreshold 250us
config *.BusProtection_MU*_A.app[*].sink.delayThreshold 30ms
config *.BusProtection_MU*_A.app[*].sink.jitterThreshold 250us
config *.*_A.displayString "\"i=abstract/pc\""
config *.*_B.displayString "\"i=abstract/pc\""
config *.borderGateway*.displayString "\"i=misc/router\""
config *.otnDevice.displayString "\"i=misc/router_vs\""
config *.MU_A.displayString "\"i=block/switch,green\""
config *.Protection_A.displayString "\"i=block/computer,red\""
config *.IT_A.displayString "\"i=block/plug,blue\""
config *.Protection_B.displayString "\"i=block/computer,red\""
config *.MonitoringCenter_A.displayString "\"i=block/server,blue\""
config *.MonitoringCenter_B.displayString "\"i=block/server,blue\""
config *.MonitoringCenter_Main.displayString "\"i=block/server,cyan\""
config *.BusProtection_A.displayString "\"i=block/computer,orange\""
config *.BusProtection_B.displayString "\"i=block/computer,orange\""
config *.BusProtection_MU*_A.displayString "\"i=block/switch,yellow\""
config *.BusProtection_MU*_B.displayString "\"i=block/switch,yellow\""
config *.Camera*_A.displayString "\"i=device/camera,gray\""
config *.Camera*_B.displayString "\"i=device/camera,gray\""
config *.VoIP1_A.displayString "\"i=device/phone,gray\""
config *.VoIP2_A.displayString "\"i=device/phone,gray\""
config *.VoIP1_B.displayString "\"i=device/phone,gray\""
config *.VoIP2_B.displayString "\"i=device/phone,gray\""
config **.channel.displayString "\"ls=black,1\""

vector 0 SmartSubstationTopology.MU_A.udp passedUpPk:vector(count) ETV
attr interpolationmode none
attr recordingmode vector(count)
attr source packetSentToUpper
attr title "packets passed up, count"
vector 1 SmartSubstationTopology.MU_A.udp droppedPkWrongPort:vector(count) ETV
attr interpolationmode none
attr recordingmode vector(count)
attr source packetDropReasonIsNoPortFound(packetDropped)
attr title "packets dropped (wrong port), count"
vector 2 SmartSubstationTopology.MU_A.udp droppedPkBadChecksum:vector(count) ETV
attr interpolationmode none
attr recordingmode vector(count)
attr source packetDropReasonIsIncorrectlyReceived(packetDropped)
attr title "packets dropped (checksum error), count"
vector 3 SmartSubstationTopology.Protection_A.udp passedUpPk:vector(count) ETV
attr interpolationmode none
attr recordingmode vector(count)
attr source packetSentToUpper
attr title "packets passed up, count"
vector 4 SmartSubstationTopology.Protection_A.udp droppedPkWrongPort:vector(count) ETV
attr interpolationmode none
attr recordingmode vector(count)
attr source packetDropReasonIsNoPortFound(packetDropped)
attr title "packets dropped (wrong port), count"
vector 5 SmartSubstationTopology.Protection_A.udp droppedPkBadChecksum:vector(count) ETV
attr interpolationmode none
attr recordingmode vector(count)
attr source packetDropReasonIsIncorrectlyReceived(packetDropped)
attr title "packets dropped (checksum error), count"
vector 6 SmartSubstationTopology.IT_A.udp passedUpPk:vector(count) ETV
attr interpolationmode none
attr recordingmode vector(count)
attr source packetSentToUpper
attr title "packets passed up, count"
vector 7 SmartSubstationTopology.IT_A.udp droppedPkWrongPort:vector(count) ETV
attr interpolationmode none
attr recordingmode vector(count)
attr source packetDropReasonIsNoPortFound(packetDropped)
attr title "packets dropped (wrong port), count"
vector 8 SmartSubstationTopology.IT_A.udp droppedPkBadChecksum:vector(count) ETV
attr interpolationmode none
attr recordingmode vector(count)
attr source packetDropReasonIsIncorrectlyReceived(packetDropped)
attr title "packets dropped (checksum error), count"
vector 9 SmartSubstationTopology.BusProtection_MU1_A.udp passedUpPk:vector(count) ETV
attr interpolationmode none
attr recordingmode vector(count)
attr source packetSentToUpper
attr title "packets passed up, count"
vector 10 SmartSubstationTopology.BusProtection_MU1_A.udp droppedPkWrongPort:vector(count) ETV
attr interpolationmode none
attr recordingmode vector(count)
attr source packetDropReasonIsNoPortFound(packetDropped)
attr title "packets dropped (wrong port), count"
vector 11 SmartSubstationTopology.BusProtection_MU1_A.udp droppedPkBadChecksum:vector(count) ETV
attr interpolationmode none
attr recordingmode vector(count)
attr source packetDropReasonIsIncorrectlyReceived(packetDropped)
attr title "packets dropped (checksum error), count"
vector 12 SmartSubstationTopology.BusProtection_MU2_A.udp passedUpPk:vector(count) ETV
attr interpolationmode none
attr recordingmode vector(count)
attr source packetSentToUpper
attr title "packets passed up, count"
vector 13 SmartSubstationTopology.BusProtection_MU2_A.udp droppedPkWrongPort:vector(count) ETV
attr interpolationmode none
attr recordingmode vector(count)
attr source packetDropReasonIsNoPortFound(packetDropped)
attr title "packets dropped (wrong port), count"
vector 14 SmartSubstationTopology.BusProtection_MU2_A.udp droppedPkBadChecksum:vector(count) ETV
attr interpolationmode none
attr recordingmode vector(count)
attr source packetDropReasonIsIncorrectlyReceived(packetDropped)
attr title "packets dropped (checksum error), count"
vector 15 SmartSubstationTopology.BusProtection_MU3_A.udp passedUpPk:vector(count) ETV
attr interpolationmode none
attr recordingmode vector(count)
attr source packetSentToUpper
attr title "packets passed up, count"
vector 16 SmartSubstationTopology.BusProtection_MU3_A.udp droppedPkWrongPort:vector(count) ETV
attr interpolationmode none
attr recordingmode vector(count)
attr source packetDropReasonIsNoPortFound(packetDropped)
attr title "packets dropped (wrong port), count"
vector 17 SmartSubstationTopology.BusProtection_MU3_A.udp droppedPkBadChecksum:vector(count) ETV
attr interpolationmode none
attr recordingmode vector(count)
attr source packetDropReasonIsIncorrectlyReceived(packetDropped)
attr title "packets dropped (checksum error), count"
vector 18 SmartSubstationTopology.BusProtection_A.udp passedUpPk:vector(count) ETV
attr interpolationmode none
attr recordingmode vector(count)
attr source packetSentToUpper
attr title "packets passed up, count"
vector 19 SmartSubstationTopology.BusProtection_A.udp droppedPkWrongPort:vector(count) ETV
attr interpolationmode none
attr recordingmode vector(count)
attr source packetDropReasonIsNoPortFound(packetDropped)
attr title "packets dropped (wrong port), count"
vector 20 SmartSubstationTopology.BusProtection_A.udp droppedPkBadChecksum:vector(count) ETV
attr interpolationmode none
attr recordingmode vector(count)
attr source packetDropReasonIsIncorrectlyReceived(packetDropped)
attr title "packets dropped (checksum error), count"
vector 21 SmartSubstationTopology.Camera1_A.udp passedUpPk:vector(count) ETV
attr interpolationmode none
attr recordingmode vector(count)
attr source packetSentToUpper
attr title "packets passed up, count"
vector 22 SmartSubstationTopology.Camera1_A.udp droppedPkWrongPort:vector(count) ETV
attr interpolationmode none
attr recordingmode vector(count)
attr source packetDropReasonIsNoPortFound(packetDropped)
attr title "packets dropped (wrong port), count"
vector 23 SmartSubstationTopology.Camera1_A.udp droppedPkBadChecksum:vector(count) ETV
attr interpolationmode none
attr recordingmode vector(count)
attr source packetDropReasonIsIncorrectlyReceived(packetDropped)
attr title "packets dropped (checksum error), count"
vector 24 SmartSubstationTopology.Camera2_A.udp passedUpPk:vector(count) ETV
attr interpolationmode none
attr recordingmode vector(count)
attr source packetSentToUpper
attr title "packets passed up, count"
vector 25 SmartSubstationTopology.Camera2_A.udp droppedPkWrongPort:vector(count) ETV
attr interpolationmode none
attr recordingmode vector(count)
attr source packetDropReasonIsNoPortFound(packetDropped)
attr title "packets dropped (wrong port), count"
vector 26 SmartSubstationTopology.Camera2_A.udp droppedPkBadChecksum:vector(count) ETV
attr interpolationmode none
attr recordingmode vector(count)
attr source packetDropReasonIsIncorrectlyReceived(packetDropped)
attr title "packets dropped (checksum error), count"
vector 27 SmartSubstationTopology.Camera3_A.udp passedUpPk:vector(count) ETV
attr interpolationmode none
attr recordingmode vector(count)
attr source packetSentToUpper
attr title "packets passed up, count"
vector 28 SmartSubstationTopology.Camera3_A.udp droppedPkWrongPort:vector(count) ETV
attr interpolationmode none
attr recordingmode vector(count)
attr source packetDropReasonIsNoPortFound(packetDropped)
attr title "packets dropped (wrong port), count"
vector 29 SmartSubstationTopology.Camera3_A.udp droppedPkBadChecksum:vector(count) ETV
attr interpolationmode none
attr recordingmode vector(count)
attr source packetDropReasonIsIncorrectlyReceived(packetDropped)
attr title "packets dropped (checksum error), count"
vector 30 SmartSubstationTopology.Camera4_A.udp passedUpPk:vector(count) ETV
attr interpolationmode none
attr recordingmode vector(count)
attr source packetSentToUpper
attr title "packets passed up, count"
vector 31 SmartSubstationTopology.Camera4_A.udp droppedPkWrongPort:vector(count) ETV
attr interpolationmode none
attr recordingmode vector(count)
attr source packetDropReasonIsNoPortFound(packetDropped)
attr title "packets dropped (wrong port), count"
vector 32 SmartSubstationTopology.Camera4_A.udp droppedPkBadChecksum:vector(count) ETV
attr interpolationmode none
attr recordingmode vector(count)
attr source packetDropReasonIsIncorrectlyReceived(packetDropped)
attr title "packets dropped (checksum error), count"
vector 33 SmartSubstationTopology.Camera5_A.udp passedUpPk:vector(count) ETV
attr interpolationmode none
attr recordingmode vector(count)
attr source packetSentToUpper
attr title "packets passed up, count"
vector 34 SmartSubstationTopology.Camera5_A.udp droppedPkWrongPort:vector(count) ETV
attr interpolationmode none
attr recordingmode vector(count)
attr source packetDropReasonIsNoPortFound(packetDropped)
attr title "packets dropped (wrong port), count"
vector 35 SmartSubstationTopology.Camera5_A.udp droppedPkBadChecksum:vector(count) ETV
attr interpolationmode none
attr recordingmode vector(count)
attr source packetDropReasonIsIncorrectlyReceived(packetDropped)
attr title "packets dropped (checksum error), count"
vector 36 SmartSubstationTopology.Camera6_A.udp passedUpPk:vector(count) ETV
attr interpolationmode none
attr recordingmode vector(count)
attr source packetSentToUpper
attr title "packets passed up, count"
vector 37 SmartSubstationTopology.Camera6_A.udp droppedPkWrongPort:vector(count) ETV
attr interpolationmode none
attr recordingmode vector(count)
attr source packetDropReasonIsNoPortFound(packetDropped)
attr title "packets dropped (wrong port), count"
vector 38 SmartSubstationTopology.Camera6_A.udp droppedPkBadChecksum:vector(count) ETV
attr interpolationmode none
attr recordingmode vector(count)
attr source packetDropReasonIsIncorrectlyReceived(packetDropped)
attr title "packets dropped (checksum error), count"
vector 39 SmartSubstationTopology.Camera7_A.udp passedUpPk:vector(count) ETV
attr interpolationmode none
attr recordingmode vector(count)
attr source packetSentToUpper
attr title "packets passed up, count"
vector 40 SmartSubstationTopology.Camera7_A.udp droppedPkWrongPort:vector(count) ETV
attr interpolationmode none
attr recordingmode vector(count)
attr source packetDropReasonIsNoPortFound(packetDropped)
attr title "packets dropped (wrong port), count"
vector 41 SmartSubstationTopology.Camera7_A.udp droppedPkBadChecksum:vector(count) ETV
attr interpolationmode none
attr recordingmode vector(count)
attr source packetDropReasonIsIncorrectlyReceived(packetDropped)
attr title "packets dropped (checksum error), count"
vector 42 SmartSubstationTopology.Camera8_A.udp passedUpPk:vector(count) ETV
attr interpolationmode none
attr recordingmode vector(count)
attr source packetSentToUpper
attr title "packets passed up, count"
vector 43 SmartSubstationTopology.Camera8_A.udp droppedPkWrongPort:vector(count) ETV
attr interpolationmode none
attr recordingmode vector(count)
attr source packetDropReasonIsNoPortFound(packetDropped)
attr title "packets dropped (wrong port), count"
vector 44 SmartSubstationTopology.Camera8_A.udp droppedPkBadChecksum:vector(count) ETV
attr interpolationmode none
attr recordingmode vector(count)
attr source packetDropReasonIsIncorrectlyReceived(packetDropped)
attr title "packets dropped (checksum error), count"
vector 45 SmartSubstationTopology.Camera9_A.udp passedUpPk:vector(count) ETV
attr interpolationmode none
attr recordingmode vector(count)
attr source packetSentToUpper
attr title "packets passed up, count"
vector 46 SmartSubstationTopology.Camera9_A.udp droppedPkWrongPort:vector(count) ETV
attr interpolationmode none
attr recordingmode vector(count)
attr source packetDropReasonIsNoPortFound(packetDropped)
attr title "packets dropped (wrong port), count"
vector 47 SmartSubstationTopology.Camera9_A.udp droppedPkBadChecksum:vector(count) ETV
attr interpolationmode none
attr recordingmode vector(count)
attr source packetDropReasonIsIncorrectlyReceived(packetDropped)
attr title "packets dropped (checksum error), count"
vector 48 SmartSubstationTopology.Camera10_A.udp passedUpPk:vector(count) ETV
attr interpolationmode none
attr recordingmode vector(count)
attr source packetSentToUpper
attr title "packets passed up, count"
vector 49 SmartSubstationTopology.Camera10_A.udp droppedPkWrongPort:vector(count) ETV
attr interpolationmode none
attr recordingmode vector(count)
attr source packetDropReasonIsNoPortFound(packetDropped)
attr title "packets dropped (wrong port), count"
vector 50 SmartSubstationTopology.Camera10_A.udp droppedPkBadChecksum:vector(count) ETV
attr interpolationmode none
attr recordingmode vector(count)
attr source packetDropReasonIsIncorrectlyReceived(packetDropped)
attr title "packets dropped (checksum error), count"
vector 51 SmartSubstationTopology.VoIP1_A.udp passedUpPk:vector(count) ETV
attr interpolationmode none
attr recordingmode vector(count)
attr source packetSentToUpper
attr title "packets passed up, count"
vector 52 SmartSubstationTopology.VoIP1_A.udp droppedPkWrongPort:vector(count) ETV
attr interpolationmode none
attr recordingmode vector(count)
attr source packetDropReasonIsNoPortFound(packetDropped)
attr title "packets dropped (wrong port), count"
vector 53 SmartSubstationTopology.VoIP1_A.udp droppedPkBadChecksum:vector(count) ETV
attr interpolationmode none
attr recordingmode vector(count)
attr source packetDropReasonIsIncorrectlyReceived(packetDropped)
attr title "packets dropped (checksum error), count"
vector 54 SmartSubstationTopology.VoIP2_A.udp passedUpPk:vector(count) ETV
attr interpolationmode none
attr recordingmode vector(count)
attr source packetSentToUpper
attr title "packets passed up, count"
vector 55 SmartSubstationTopology.VoIP2_A.udp droppedPkWrongPort:vector(count) ETV
attr interpolationmode none
attr recordingmode vector(count)
attr source packetDropReasonIsNoPortFound(packetDropped)
attr title "packets dropped (wrong port), count"
vector 56 SmartSubstationTopology.VoIP2_A.udp droppedPkBadChecksum:vector(count) ETV
attr interpolationmode none
attr recordingmode vector(count)
attr source packetDropReasonIsIncorrectlyReceived(packetDropped)
attr title "packets dropped (checksum error), count"
vector 57 SmartSubstationTopology.MonitoringCenter_A.udp passedUpPk:vector(count) ETV
attr interpolationmode none
attr recordingmode vector(count)
attr source packetSentToUpper
attr title "packets passed up, count"
vector 58 SmartSubstationTopology.MonitoringCenter_A.udp droppedPkWrongPort:vector(count) ETV
attr interpolationmode none
attr recordingmode vector(count)
attr source packetDropReasonIsNoPortFound(packetDropped)
attr title "packets dropped (wrong port), count"
vector 59 SmartSubstationTopology.MonitoringCenter_A.udp droppedPkBadChecksum:vector(count) ETV
attr interpolationmode none
attr recordingmode vector(count)
attr source packetDropReasonIsIncorrectlyReceived(packetDropped)
attr title "packets dropped (checksum error), count"
vector 60 SmartSubstationTopology.MU_B.udp passedUpPk:vector(count) ETV
attr interpolationmode none
attr recordingmode vector(count)
attr source packetSentToUpper
attr title "packets passed up, count"
vector 61 SmartSubstationTopology.MU_B.udp droppedPkWrongPort:vector(count) ETV
attr interpolationmode none
attr recordingmode vector(count)
attr source packetDropReasonIsNoPortFound(packetDropped)
attr title "packets dropped (wrong port), count"
vector 62 SmartSubstationTopology.MU_B.udp droppedPkBadChecksum:vector(count) ETV
attr interpolationmode none
attr recordingmode vector(count)
attr source packetDropReasonIsIncorrectlyReceived(packetDropped)
attr title "packets dropped (checksum error), count"
vector 63 SmartSubstationTopology.Protection_B.udp passedUpPk:vector(count) ETV
attr interpolationmode none
attr recordingmode vector(count)
attr source packetSentToUpper
attr title "packets passed up, count"
vector 64 SmartSubstationTopology.Protection_B.udp droppedPkWrongPort:vector(count) ETV
attr interpolationmode none
attr recordingmode vector(count)
attr source packetDropReasonIsNoPortFound(packetDropped)
attr title "packets dropped (wrong port), count"
vector 65 SmartSubstationTopology.Protection_B.udp droppedPkBadChecksum:vector(count) ETV
attr interpolationmode none
attr recordingmode vector(count)
attr source packetDropReasonIsIncorrectlyReceived(packetDropped)
attr title "packets dropped (checksum error), count"
vector 66 SmartSubstationTopology.IT_B.udp passedUpPk:vector(count) ETV
attr interpolationmode none
attr recordingmode vector(count)
attr source packetSentToUpper
attr title "packets passed up, count"
vector 67 SmartSubstationTopology.IT_B.udp droppedPkWrongPort:vector(count) ETV
attr interpolationmode none
attr recordingmode vector(count)
attr source packetDropReasonIsNoPortFound(packetDropped)
attr title "packets dropped (wrong port), count"
vector 68 SmartSubstationTopology.IT_B.udp droppedPkBadChecksum:vector(count) ETV
attr interpolationmode none
attr recordingmode vector(count)
attr source packetDropReasonIsIncorrectlyReceived(packetDropped)
attr title "packets dropped (checksum error), count"
vector 69 SmartSubstationTopology.BusProtection_MU1_B.udp passedUpPk:vector(count) ETV
attr interpolationmode none
attr recordingmode vector(count)
attr source packetSentToUpper
attr title "packets passed up, count"
vector 70 SmartSubstationTopology.BusProtection_MU1_B.udp droppedPkWrongPort:vector(count) ETV
attr interpolationmode none
attr recordingmode vector(count)
attr source packetDropReasonIsNoPortFound(packetDropped)
attr title "packets dropped (wrong port), count"
vector 71 SmartSubstationTopology.BusProtection_MU1_B.udp droppedPkBadChecksum:vector(count) ETV
attr interpolationmode none
attr recordingmode vector(count)
attr source packetDropReasonIsIncorrectlyReceived(packetDropped)
attr title "packets dropped (checksum error), count"
vector 72 SmartSubstationTopology.BusProtection_MU2_B.udp passedUpPk:vector(count) ETV
attr interpolationmode none
attr recordingmode vector(count)
attr source packetSentToUpper
attr title "packets passed up, count"
vector 73 SmartSubstationTopology.BusProtection_MU2_B.udp droppedPkWrongPort:vector(count) ETV
attr interpolationmode none
attr recordingmode vector(count)
attr source packetDropReasonIsNoPortFound(packetDropped)
attr title "packets dropped (wrong port), count"
vector 74 SmartSubstationTopology.BusProtection_MU2_B.udp droppedPkBadChecksum:vector(count) ETV
attr interpolationmode none
attr recordingmode vector(count)
attr source packetDropReasonIsIncorrectlyReceived(packetDropped)
attr title "packets dropped (checksum error), count"
vector 75 SmartSubstationTopology.BusProtection_MU3_B.udp passedUpPk:vector(count) ETV
attr interpolationmode none
attr recordingmode vector(count)
attr source packetSentToUpper
attr title "packets passed up, count"
vector 76 SmartSubstationTopology.BusProtection_MU3_B.udp droppedPkWrongPort:vector(count) ETV
attr interpolationmode none
attr recordingmode vector(count)
attr source packetDropReasonIsNoPortFound(packetDropped)
attr title "packets dropped (wrong port), count"
vector 77 SmartSubstationTopology.BusProtection_MU3_B.udp droppedPkBadChecksum:vector(count) ETV
attr interpolationmode none
attr recordingmode vector(count)
attr source packetDropReasonIsIncorrectlyReceived(packetDropped)
attr title "packets dropped (checksum error), count"
vector 78 SmartSubstationTopology.BusProtection_B.udp passedUpPk:vector(count) ETV
attr interpolationmode none
attr recordingmode vector(count)
attr source packetSentToUpper
attr title "packets passed up, count"
vector 79 SmartSubstationTopology.BusProtection_B.udp droppedPkWrongPort:vector(count) ETV
attr interpolationmode none
attr recordingmode vector(count)
attr source packetDropReasonIsNoPortFound(packetDropped)
attr title "packets dropped (wrong port), count"
vector 80 SmartSubstationTopology.BusProtection_B.udp droppedPkBadChecksum:vector(count) ETV
attr interpolationmode none
attr recordingmode vector(count)
attr source packetDropReasonIsIncorrectlyReceived(packetDropped)
attr title "packets dropped (checksum error), count"
vector 81 SmartSubstationTopology.Camera1_B.udp passedUpPk:vector(count) ETV
attr interpolationmode none
attr recordingmode vector(count)
attr source packetSentToUpper
attr title "packets passed up, count"
vector 82 SmartSubstationTopology.Camera1_B.udp droppedPkWrongPort:vector(count) ETV
attr interpolationmode none
attr recordingmode vector(count)
attr source packetDropReasonIsNoPortFound(packetDropped)
attr title "packets dropped (wrong port), count"
vector 83 SmartSubstationTopology.Camera1_B.udp droppedPkBadChecksum:vector(count) ETV
attr interpolationmode none
attr recordingmode vector(count)
attr source packetDropReasonIsIncorrectlyReceived(packetDropped)
attr title "packets dropped (checksum error), count"
vector 84 SmartSubstationTopology.Camera2_B.udp passedUpPk:vector(count) ETV
attr interpolationmode none
attr recordingmode vector(count)
attr source packetSentToUpper
attr title "packets passed up, count"
vector 85 SmartSubstationTopology.Camera2_B.udp droppedPkWrongPort:vector(count) ETV
attr interpolationmode none
attr recordingmode vector(count)
attr source packetDropReasonIsNoPortFound(packetDropped)
attr title "packets dropped (wrong port), count"
vector 86 SmartSubstationTopology.Camera2_B.udp droppedPkBadChecksum:vector(count) ETV
attr interpolationmode none
attr recordingmode vector(count)
attr source packetDropReasonIsIncorrectlyReceived(packetDropped)
attr title "packets dropped (checksum error), count"
vector 87 SmartSubstationTopology.Camera3_B.udp passedUpPk:vector(count) ETV
attr interpolationmode none
attr recordingmode vector(count)
attr source packetSentToUpper
attr title "packets passed up, count"
vector 88 SmartSubstationTopology.Camera3_B.udp droppedPkWrongPort:vector(count) ETV
attr interpolationmode none
attr recordingmode vector(count)
attr source packetDropReasonIsNoPortFound(packetDropped)
attr title "packets dropped (wrong port), count"
vector 89 SmartSubstationTopology.Camera3_B.udp droppedPkBadChecksum:vector(count) ETV
attr interpolationmode none
attr recordingmode vector(count)
attr source packetDropReasonIsIncorrectlyReceived(packetDropped)
attr title "packets dropped (checksum error), count"
vector 90 SmartSubstationTopology.Camera4_B.udp passedUpPk:vector(count) ETV
attr interpolationmode none
attr recordingmode vector(count)
attr source packetSentToUpper
attr title "packets passed up, count"
vector 91 SmartSubstationTopology.Camera4_B.udp droppedPkWrongPort:vector(count) ETV
attr interpolationmode none
attr recordingmode vector(count)
attr source packetDropReasonIsNoPortFound(packetDropped)
attr title "packets dropped (wrong port), count"
vector 92 SmartSubstationTopology.Camera4_B.udp droppedPkBadChecksum:vector(count) ETV
attr interpolationmode none
attr recordingmode vector(count)
attr source packetDropReasonIsIncorrectlyReceived(packetDropped)
attr title "packets dropped (checksum error), count"
vector 93 SmartSubstationTopology.Camera5_B.udp passedUpPk:vector(count) ETV
attr interpolationmode none
attr recordingmode vector(count)
attr source packetSentToUpper
attr title "packets passed up, count"
vector 94 SmartSubstationTopology.Camera5_B.udp droppedPkWrongPort:vector(count) ETV
attr interpolationmode none
attr recordingmode vector(count)
attr source packetDropReasonIsNoPortFound(packetDropped)
attr title "packets dropped (wrong port), count"
vector 95 SmartSubstationTopology.Camera5_B.udp droppedPkBadChecksum:vector(count) ETV
attr interpolationmode none
attr recordingmode vector(count)
attr source packetDropReasonIsIncorrectlyReceived(packetDropped)
attr title "packets dropped (checksum error), count"
vector 96 SmartSubstationTopology.Camera6_B.udp passedUpPk:vector(count) ETV
attr interpolationmode none
attr recordingmode vector(count)
attr source packetSentToUpper
attr title "packets passed up, count"
vector 97 SmartSubstationTopology.Camera6_B.udp droppedPkWrongPort:vector(count) ETV
attr interpolationmode none
attr recordingmode vector(count)
attr source packetDropReasonIsNoPortFound(packetDropped)
attr title "packets dropped (wrong port), count"
vector 98 SmartSubstationTopology.Camera6_B.udp droppedPkBadChecksum:vector(count) ETV
attr interpolationmode none
attr recordingmode vector(count)
attr source packetDropReasonIsIncorrectlyReceived(packetDropped)
attr title "packets dropped (checksum error), count"
vector 99 SmartSubstationTopology.Camera7_B.udp passedUpPk:vector(count) ETV
attr interpolationmode none
attr recordingmode vector(count)
attr source packetSentToUpper
attr title "packets passed up, count"
vector 100 SmartSubstationTopology.Camera7_B.udp droppedPkWrongPort:vector(count) ETV
attr interpolationmode none
attr recordingmode vector(count)
attr source packetDropReasonIsNoPortFound(packetDropped)
attr title "packets dropped (wrong port), count"
vector 101 SmartSubstationTopology.Camera7_B.udp droppedPkBadChecksum:vector(count) ETV
attr interpolationmode none
attr recordingmode vector(count)
attr source packetDropReasonIsIncorrectlyReceived(packetDropped)
attr title "packets dropped (checksum error), count"
vector 102 SmartSubstationTopology.Camera8_B.udp passedUpPk:vector(count) ETV
attr interpolationmode none
attr recordingmode vector(count)
attr source packetSentToUpper
attr title "packets passed up, count"
vector 103 SmartSubstationTopology.Camera8_B.udp droppedPkWrongPort:vector(count) ETV
attr interpolationmode none
attr recordingmode vector(count)
attr source packetDropReasonIsNoPortFound(packetDropped)
attr title "packets dropped (wrong port), count"
vector 104 SmartSubstationTopology.Camera8_B.udp droppedPkBadChecksum:vector(count) ETV
attr interpolationmode none
attr recordingmode vector(count)
attr source packetDropReasonIsIncorrectlyReceived(packetDropped)
attr title "packets dropped (checksum error), count"
vector 105 SmartSubstationTopology.Camera9_B.udp passedUpPk:vector(count) ETV
attr interpolationmode none
attr recordingmode vector(count)
attr source packetSentToUpper
attr title "packets passed up, count"
vector 106 SmartSubstationTopology.Camera9_B.udp droppedPkWrongPort:vector(count) ETV
attr interpolationmode none
attr recordingmode vector(count)
attr source packetDropReasonIsNoPortFound(packetDropped)
attr title "packets dropped (wrong port), count"
vector 107 SmartSubstationTopology.Camera9_B.udp droppedPkBadChecksum:vector(count) ETV
attr interpolationmode none
attr recordingmode vector(count)
attr source packetDropReasonIsIncorrectlyReceived(packetDropped)
attr title "packets dropped (checksum error), count"
vector 108 SmartSubstationTopology.Camera10_B.udp passedUpPk:vector(count) ETV
attr interpolationmode none
attr recordingmode vector(count)
attr source packetSentToUpper
attr title "packets passed up, count"
vector 109 SmartSubstationTopology.Camera10_B.udp droppedPkWrongPort:vector(count) ETV
attr interpolationmode none
attr recordingmode vector(count)
attr source packetDropReasonIsNoPortFound(packetDropped)
attr title "packets dropped (wrong port), count"
vector 110 SmartSubstationTopology.Camera10_B.udp droppedPkBadChecksum:vector(count) ETV
attr interpolationmode none
attr recordingmode vector(count)
attr source packetDropReasonIsIncorrectlyReceived(packetDropped)
attr title "packets dropped (checksum error), count"
vector 111 SmartSubstationTopology.VoIP1_B.udp passedUpPk:vector(count) ETV
attr interpolationmode none
attr recordingmode vector(count)
attr source packetSentToUpper
attr title "packets passed up, count"
vector 112 SmartSubstationTopology.VoIP1_B.udp droppedPkWrongPort:vector(count) ETV
attr interpolationmode none
attr recordingmode vector(count)
attr source packetDropReasonIsNoPortFound(packetDropped)
attr title "packets dropped (wrong port), count"
vector 113 SmartSubstationTopology.VoIP1_B.udp droppedPkBadChecksum:vector(count) ETV
attr interpolationmode none
attr recordingmode vector(count)
attr source packetDropReasonIsIncorrectlyReceived(packetDropped)
attr title "packets dropped (checksum error), count"
vector 114 SmartSubstationTopology.VoIP2_B.udp passedUpPk:vector(count) ETV
attr interpolationmode none
attr recordingmode vector(count)
attr source packetSentToUpper
attr title "packets passed up, count"
vector 115 SmartSubstationTopology.VoIP2_B.udp droppedPkWrongPort:vector(count) ETV
attr interpolationmode none
attr recordingmode vector(count)
attr source packetDropReasonIsNoPortFound(packetDropped)
attr title "packets dropped (wrong port), count"
vector 116 SmartSubstationTopology.VoIP2_B.udp droppedPkBadChecksum:vector(count) ETV
attr interpolationmode none
attr recordingmode vector(count)
attr source packetDropReasonIsIncorrectlyReceived(packetDropped)
attr title "packets dropped (checksum error), count"
vector 117 SmartSubstationTopology.MonitoringCenter_B.udp passedUpPk:vector(count) ETV
attr interpolationmode none
attr recordingmode vector(count)
attr source packetSentToUpper
attr title "packets passed up, count"
vector 118 SmartSubstationTopology.MonitoringCenter_B.udp droppedPkWrongPort:vector(count) ETV
attr interpolationmode none
attr recordingmode vector(count)
attr source packetDropReasonIsNoPortFound(packetDropped)
attr title "packets dropped (wrong port), count"
vector 119 SmartSubstationTopology.MonitoringCenter_B.udp droppedPkBadChecksum:vector(count) ETV
attr interpolationmode none
attr recordingmode vector(count)
attr source packetDropReasonIsIncorrectlyReceived(packetDropped)
attr title "packets dropped (checksum error), count"
vector 120 SmartSubstationTopology.MonitoringCenter_Main.udp passedUpPk:vector(count) ETV
attr interpolationmode none
attr recordingmode vector(count)
attr source packetSentToUpper
attr title "packets passed up, count"
vector 121 SmartSubstationTopology.MonitoringCenter_Main.udp droppedPkWrongPort:vector(count) ETV
attr interpolationmode none
attr recordingmode vector(count)
attr source packetDropReasonIsNoPortFound(packetDropped)
attr title "packets dropped (wrong port), count"
vector 122 SmartSubstationTopology.MonitoringCenter_Main.udp droppedPkBadChecksum:vector(count) ETV
attr interpolationmode none
attr recordingmode vector(count)
attr source packetDropReasonIsIncorrectlyReceived(packetDropped)
attr title "packets dropped (checksum error), count"
vector 123 SmartSubstationTopology.borderGateway1.ppp[0].ppp transmissionState:vector ETV
attr interpolationmode sample-hold
attr recordingmode vector
attr source transmissionStateChanged
attr title "tx state"
vector 124 SmartSubstationTopology.borderGateway1.udp passedUpPk:vector(count) ETV
attr interpolationmode none
attr recordingmode vector(count)
attr source packetSentToUpper
attr title "packets passed up, count"
vector 125 SmartSubstationTopology.borderGateway1.udp droppedPkWrongPort:vector(count) ETV
attr interpolationmode none
attr recordingmode vector(count)
attr source packetDropReasonIsNoPortFound(packetDropped)
attr title "packets dropped (wrong port), count"
vector 126 SmartSubstationTopology.borderGateway1.udp droppedPkBadChecksum:vector(count) ETV
attr interpolationmode none
attr recordingmode vector(count)
attr source packetDropReasonIsIncorrectlyReceived(packetDropped)
attr title "packets dropped (checksum error), count"
vector 127 SmartSubstationTopology.borderGateway2.ppp[0].ppp transmissionState:vector ETV
attr interpolationmode sample-hold
attr recordingmode vector
attr source transmissionStateChanged
attr title "tx state"
vector 128 SmartSubstationTopology.borderGateway2.udp passedUpPk:vector(count) ETV
attr interpolationmode none
attr recordingmode vector(count)
attr source packetSentToUpper
attr title "packets passed up, count"
vector 129 SmartSubstationTopology.borderGateway2.udp droppedPkWrongPort:vector(count) ETV
attr interpolationmode none
attr recordingmode vector(count)
attr source packetDropReasonIsNoPortFound(packetDropped)
attr title "packets dropped (wrong port), count"
vector 130 SmartSubstationTopology.borderGateway2.udp droppedPkBadChecksum:vector(count) ETV
attr interpolationmode none
attr recordingmode vector(count)
attr source packetDropReasonIsIncorrectlyReceived(packetDropped)
attr title "packets dropped (checksum error), count"
vector 131 SmartSubstationTopology.otnDevice.ppp[0].ppp transmissionState:vector ETV
attr interpolationmode sample-hold
attr recordingmode vector
attr source transmissionStateChanged
attr title "tx state"
vector 132 SmartSubstationTopology.otnDevice.ppp[1].ppp transmissionState:vector ETV
attr interpolationmode sample-hold
attr recordingmode vector
attr source transmissionStateChanged
attr title "tx state"
vector 133 SmartSubstationTopology.otnDevice.udp passedUpPk:vector(count) ETV
attr interpolationmode none
attr recordingmode vector(count)
attr source packetSentToUpper
attr title "packets passed up, count"
vector 134 SmartSubstationTopology.otnDevice.udp droppedPkWrongPort:vector(count) ETV
attr interpolationmode none
attr recordingmode vector(count)
attr source packetDropReasonIsNoPortFound(packetDropped)
attr title "packets dropped (wrong port), count"
vector 135 SmartSubstationTopology.otnDevice.udp droppedPkBadChecksum:vector(count) ETV
attr interpolationmode none
attr recordingmode vector(count)
attr source packetDropReasonIsIncorrectlyReceived(packetDropped)
attr title "packets dropped (checksum error), count"
vector 136 SmartSubstationTopology.MU_A.udp packetSent:vector(packetBytes) ETV
attr interpolationmode none
attr recordingmode vector(packetBytes)
attr source packetSent
attr title "packets sent, packetBytes"
vector 137 SmartSubstationTopology.MU_B.udp packetSent:vector(packetBytes) ETV
attr interpolationmode none
attr recordingmode vector(packetBytes)
attr source packetSent
attr title "packets sent, packetBytes"
vector 138 SmartSubstationTopology.MU_A.ipv4.arp arpRequestSent:vector(packetBytes) ETV
attr recordingmode vector(packetBytes)
attr source arpRequestSent
attr title "ARP request sent, packetBytes"
vector 139 SmartSubstationTopology.MU_B.ipv4.arp arpRequestSent:vector(packetBytes) ETV
attr recordingmode vector(packetBytes)
attr source arpRequestSent
attr title "ARP request sent, packetBytes"
vector 140 SmartSubstationTopology.MU_A.ethernet encapPk:vector(packetBytes) ETV
attr interpolationmode none
attr recordingmode vector(packetBytes)
attr source encapPk
attr title "packets encapsulated, packetBytes"
vector 141 SmartSubstationTopology.MU_B.ethernet encapPk:vector(packetBytes) ETV
attr interpolationmode none
attr recordingmode vector(packetBytes)
attr source encapPk
attr title "packets encapsulated, packetBytes"
vector 142 SmartSubstationTopology.MU_A.eth[0].queue incomingPacketLengths:vector ETV
attr interpolationmode none
attr recordingmode vector
attr source packetLength(packetPushStarted)
attr title "incoming packet lengths"
attr unit b
vector 143 SmartSubstationTopology.MU_A.eth[0].queue queueingTime:vector ETV
attr interpolationmode none
attr recordingmode vector
attr source queueingTime(packetPulled)
attr title "queueing times"
attr unit s
vector 144 SmartSubstationTopology.MU_A.eth[0].queue outgoingPacketLengths:vector ETV
attr interpolationmode none
attr recordingmode vector
attr source packetLength(packetPulled)
attr title "outgoing packet lengths"
attr unit b
vector 145 SmartSubstationTopology.MU_A.eth[0].mac packetReceivedFromUpper:vector(packetBytes) ETV
attr interpolationmode none
attr recordingmode vector(packetBytes)
attr source packetReceivedFromUpper
attr title "packet bytes from higher layer, packetBytes"
vector 146 SmartSubstationTopology.MU_A.eth[0].queue queueLength:vector ETV
attr autoWarmupFilter false
attr interpolationmode sample-hold
attr recordingmode vector
attr source "warmup(atomic(constant0(packetPushEnded) + count(packetPushStarted) - count(packetPulled) - count(packetRemoved) - count(packetDropped)))"
attr title "queue length"
attr unit pk
vector 147 SmartSubstationTopology.MU_A.eth[0].queue queueBitLength:vector ETV
attr autoWarmupFilter false
attr interpolationmode sample-hold
attr recordingmode vector
attr source "warmup(atomic(constant0(packetPushEnded) + sum(packetLength(packetPushStarted)) - sum(packetLength(packetPulled)) - sum(packetLength(packetRemoved)) - sum(packetLength(packetDropped))))"
attr title "queue bit length"
attr unit b
vector 148 SmartSubstationTopology.MU_B.eth[0].queue incomingPacketLengths:vector ETV
attr interpolationmode none
attr recordingmode vector
attr source packetLength(packetPushStarted)
attr title "incoming packet lengths"
attr unit b
vector 149 SmartSubstationTopology.MU_B.eth[0].queue queueingTime:vector ETV
attr interpolationmode none
attr recordingmode vector
attr source queueingTime(packetPulled)
attr title "queueing times"
attr unit s
vector 150 SmartSubstationTopology.MU_B.eth[0].queue outgoingPacketLengths:vector ETV
attr interpolationmode none
attr recordingmode vector
attr source packetLength(packetPulled)
attr title "outgoing packet lengths"
attr unit b
vector 151 SmartSubstationTopology.MU_B.eth[0].mac packetReceivedFromUpper:vector(packetBytes) ETV
attr interpolationmode none
attr recordingmode vector(packetBytes)
attr source packetReceivedFromUpper
attr title "packet bytes from higher layer, packetBytes"
vector 152 SmartSubstationTopology.MU_B.eth[0].queue queueLength:vector ETV
attr autoWarmupFilter false
attr interpolationmode sample-hold
attr recordingmode vector
attr source "warmup(atomic(constant0(packetPushEnded) + count(packetPushStarted) - count(packetPulled) - count(packetRemoved) - count(packetDropped)))"
attr title "queue length"
attr unit pk
vector 153 SmartSubstationTopology.MU_B.eth[0].queue queueBitLength:vector ETV
attr autoWarmupFilter false
attr interpolationmode sample-hold
attr recordingmode vector
attr source "warmup(atomic(constant0(packetPushEnded) + sum(packetLength(packetPushStarted)) - sum(packetLength(packetPulled)) - sum(packetLength(packetRemoved)) - sum(packetLength(packetDropped))))"
attr title "queue bit length"
attr unit b
vector 154 SmartSubstationTopology.MU_A.eth[0].mac txPk:vector(packetBytes) ETV
attr interpolationmode none
attr recordingmode vector(packetBytes)
attr source packetSentToLower
attr title "packets transmitted, packetBytes"
vector 155 SmartSubstationTopology.MU_B.eth[0].mac txPk:vector(packetBytes) ETV
attr interpolationmode none
attr recordingmode vector(packetBytes)
attr source packetSentToLower
attr title "packets transmitted, packetBytes"
vector 156 SmartSubstationTopology.TSN_A_ACC_PROT.eth[0].mac rxPkOk:vector(packetBytes) ETV
attr interpolationmode none
attr recordingmode vector(packetBytes)
attr source rxPkOk
attr title "packets received OK, packetBytes"
vector 157 SmartSubstationTopology.TSN_A_ACC_PROT.eth[0].mac passedUpPk:vector(packetBytes) ETV
attr interpolationmode none
attr recordingmode vector(packetBytes)
attr source packetSentToUpper
attr title "packets passed to higher layer, packetBytes"
vector 158 SmartSubstationTopology.TSN_B_ACC_PROT.eth[0].mac rxPkOk:vector(packetBytes) ETV
attr interpolationmode none
attr recordingmode vector(packetBytes)
attr source rxPkOk
attr title "packets received OK, packetBytes"
vector 159 SmartSubstationTopology.TSN_B_ACC_PROT.eth[0].mac passedUpPk:vector(packetBytes) ETV
attr interpolationmode none
attr recordingmode vector(packetBytes)
attr source packetSentToUpper
attr title "packets passed to higher layer, packetBytes"
vector 160 SmartSubstationTopology.TSN_A_ACC_PROT.ethernet decapPk:vector(packetBytes) ETV
attr interpolationmode none
attr recordingmode vector(packetBytes)
attr source decapPk
attr title "packets decapsulated, packetBytes"
vector 161 SmartSubstationTopology.TSN_B_ACC_PROT.ethernet decapPk:vector(packetBytes) ETV
attr interpolationmode none
attr recordingmode vector(packetBytes)
attr source decapPk
attr title "packets decapsulated, packetBytes"
vector 162 SmartSubstationTopology.TSN_A_ACC_PROT.ethernet encapPk:vector(packetBytes) ETV
attr interpolationmode none
attr recordingmode vector(packetBytes)
attr source encapPk
attr title "packets encapsulated, packetBytes"
vector 163 SmartSubstationTopology.TSN_B_ACC_PROT.ethernet encapPk:vector(packetBytes) ETV
attr interpolationmode none
attr recordingmode vector(packetBytes)
attr source encapPk
attr title "packets encapsulated, packetBytes"
vector 164 SmartSubstationTopology.TSN_A_ACC_PROT.eth[1].queue incomingPacketLengths:vector ETV
attr interpolationmode none
attr recordingmode vector
attr source packetLength(packetPushStarted)
attr title "incoming packet lengths"
attr unit b
vector 165 SmartSubstationTopology.TSN_A_ACC_PROT.eth[1].queue queueingTime:vector ETV
attr interpolationmode none
attr recordingmode vector
attr source queueingTime(packetPulled)
attr title "queueing times"
attr unit s
vector 166 SmartSubstationTopology.TSN_A_ACC_PROT.eth[1].queue outgoingPacketLengths:vector ETV
attr interpolationmode none
attr recordingmode vector
attr source packetLength(packetPulled)
attr title "outgoing packet lengths"
attr unit b
vector 167 SmartSubstationTopology.TSN_A_ACC_PROT.eth[1].mac packetReceivedFromUpper:vector(packetBytes) ETV
attr interpolationmode none
attr recordingmode vector(packetBytes)
attr source packetReceivedFromUpper
attr title "packet bytes from higher layer, packetBytes"
vector 168 SmartSubstationTopology.TSN_A_ACC_PROT.eth[1].queue queueLength:vector ETV
attr autoWarmupFilter false
attr interpolationmode sample-hold
attr recordingmode vector
attr source "warmup(atomic(constant0(packetPushEnded) + count(packetPushStarted) - count(packetPulled) - count(packetRemoved) - count(packetDropped)))"
attr title "queue length"
attr unit pk
vector 169 SmartSubstationTopology.TSN_A_ACC_PROT.eth[1].queue queueBitLength:vector ETV
attr autoWarmupFilter false
attr interpolationmode sample-hold
attr recordingmode vector
attr source "warmup(atomic(constant0(packetPushEnded) + sum(packetLength(packetPushStarted)) - sum(packetLength(packetPulled)) - sum(packetLength(packetRemoved)) - sum(packetLength(packetDropped))))"
attr title "queue bit length"
attr unit b
vector 170 SmartSubstationTopology.TSN_A_ACC_PROT.eth[2].queue incomingPacketLengths:vector ETV
attr interpolationmode none
attr recordingmode vector
attr source packetLength(packetPushStarted)
attr title "incoming packet lengths"
attr unit b
vector 171 SmartSubstationTopology.TSN_A_ACC_PROT.eth[2].queue queueingTime:vector ETV
attr interpolationmode none
attr recordingmode vector
attr source queueingTime(packetPulled)
attr title "queueing times"
attr unit s
vector 172 SmartSubstationTopology.TSN_A_ACC_PROT.eth[2].queue outgoingPacketLengths:vector ETV
attr interpolationmode none
attr recordingmode vector
attr source packetLength(packetPulled)
attr title "outgoing packet lengths"
attr unit b
vector 173 SmartSubstationTopology.TSN_A_ACC_PROT.eth[2].mac packetReceivedFromUpper:vector(packetBytes) ETV
attr interpolationmode none
attr recordingmode vector(packetBytes)
attr source packetReceivedFromUpper
attr title "packet bytes from higher layer, packetBytes"
vector 174 SmartSubstationTopology.TSN_A_ACC_PROT.eth[2].queue queueLength:vector ETV
attr autoWarmupFilter false
attr interpolationmode sample-hold
attr recordingmode vector
attr source "warmup(atomic(constant0(packetPushEnded) + count(packetPushStarted) - count(packetPulled) - count(packetRemoved) - count(packetDropped)))"
attr title "queue length"
attr unit pk
vector 175 SmartSubstationTopology.TSN_A_ACC_PROT.eth[2].queue queueBitLength:vector ETV
attr autoWarmupFilter false
attr interpolationmode sample-hold
attr recordingmode vector
attr source "warmup(atomic(constant0(packetPushEnded) + sum(packetLength(packetPushStarted)) - sum(packetLength(packetPulled)) - sum(packetLength(packetRemoved)) - sum(packetLength(packetDropped))))"
attr title "queue bit length"
attr unit b
vector 176 SmartSubstationTopology.TSN_A_ACC_PROT.eth[3].queue incomingPacketLengths:vector ETV
attr interpolationmode none
attr recordingmode vector
attr source packetLength(packetPushStarted)
attr title "incoming packet lengths"
attr unit b
vector 177 SmartSubstationTopology.TSN_A_ACC_PROT.eth[3].queue queueingTime:vector ETV
attr interpolationmode none
attr recordingmode vector
attr source queueingTime(packetPulled)
attr title "queueing times"
attr unit s
vector 178 SmartSubstationTopology.TSN_A_ACC_PROT.eth[3].queue outgoingPacketLengths:vector ETV
attr interpolationmode none
attr recordingmode vector
attr source packetLength(packetPulled)
attr title "outgoing packet lengths"
attr unit b
vector 179 SmartSubstationTopology.TSN_A_ACC_PROT.eth[3].mac packetReceivedFromUpper:vector(packetBytes) ETV
attr interpolationmode none
attr recordingmode vector(packetBytes)
attr source packetReceivedFromUpper
attr title "packet bytes from higher layer, packetBytes"
vector 180 SmartSubstationTopology.TSN_A_ACC_PROT.eth[3].queue queueLength:vector ETV
attr autoWarmupFilter false
attr interpolationmode sample-hold
attr recordingmode vector
attr source "warmup(atomic(constant0(packetPushEnded) + count(packetPushStarted) - count(packetPulled) - count(packetRemoved) - count(packetDropped)))"
attr title "queue length"
attr unit pk
vector 181 SmartSubstationTopology.TSN_A_ACC_PROT.eth[3].queue queueBitLength:vector ETV
attr autoWarmupFilter false
attr interpolationmode sample-hold
attr recordingmode vector
attr source "warmup(atomic(constant0(packetPushEnded) + sum(packetLength(packetPushStarted)) - sum(packetLength(packetPulled)) - sum(packetLength(packetRemoved)) - sum(packetLength(packetDropped))))"
attr title "queue bit length"
attr unit b
vector 182 SmartSubstationTopology.TSN_B_ACC_PROT.eth[1].queue incomingPacketLengths:vector ETV
attr interpolationmode none
attr recordingmode vector
attr source packetLength(packetPushStarted)
attr title "incoming packet lengths"
attr unit b
vector 183 SmartSubstationTopology.TSN_B_ACC_PROT.eth[1].queue queueingTime:vector ETV
attr interpolationmode none
attr recordingmode vector
attr source queueingTime(packetPulled)
attr title "queueing times"
attr unit s
vector 184 SmartSubstationTopology.TSN_B_ACC_PROT.eth[1].queue outgoingPacketLengths:vector ETV
attr interpolationmode none
attr recordingmode vector
attr source packetLength(packetPulled)
attr title "outgoing packet lengths"
attr unit b
vector 185 SmartSubstationTopology.TSN_B_ACC_PROT.eth[1].mac packetReceivedFromUpper:vector(packetBytes) ETV
attr interpolationmode none
attr recordingmode vector(packetBytes)
attr source packetReceivedFromUpper
attr title "packet bytes from higher layer, packetBytes"
vector 186 SmartSubstationTopology.TSN_B_ACC_PROT.eth[1].queue queueLength:vector ETV
attr autoWarmupFilter false
attr interpolationmode sample-hold
attr recordingmode vector
attr source "warmup(atomic(constant0(packetPushEnded) + count(packetPushStarted) - count(packetPulled) - count(packetRemoved) - count(packetDropped)))"
attr title "queue length"
attr unit pk
vector 187 SmartSubstationTopology.TSN_B_ACC_PROT.eth[1].queue queueBitLength:vector ETV
attr autoWarmupFilter false
attr interpolationmode sample-hold
attr recordingmode vector
attr source "warmup(atomic(constant0(packetPushEnded) + sum(packetLength(packetPushStarted)) - sum(packetLength(packetPulled)) - sum(packetLength(packetRemoved)) - sum(packetLength(packetDropped))))"
attr title "queue bit length"
attr unit b
vector 188 SmartSubstationTopology.TSN_B_ACC_PROT.eth[2].queue incomingPacketLengths:vector ETV
attr interpolationmode none
attr recordingmode vector
attr source packetLength(packetPushStarted)
attr title "incoming packet lengths"
attr unit b
vector 189 SmartSubstationTopology.TSN_B_ACC_PROT.eth[2].queue queueingTime:vector ETV
attr interpolationmode none
attr recordingmode vector
attr source queueingTime(packetPulled)
attr title "queueing times"
attr unit s
vector 190 SmartSubstationTopology.TSN_B_ACC_PROT.eth[2].queue outgoingPacketLengths:vector ETV
attr interpolationmode none
attr recordingmode vector
attr source packetLength(packetPulled)
attr title "outgoing packet lengths"
attr unit b
vector 191 SmartSubstationTopology.TSN_B_ACC_PROT.eth[2].mac packetReceivedFromUpper:vector(packetBytes) ETV
attr interpolationmode none
attr recordingmode vector(packetBytes)
attr source packetReceivedFromUpper
attr title "packet bytes from higher layer, packetBytes"
vector 192 SmartSubstationTopology.TSN_B_ACC_PROT.eth[2].queue queueLength:vector ETV
attr autoWarmupFilter false
attr interpolationmode sample-hold
attr recordingmode vector
attr source "warmup(atomic(constant0(packetPushEnded) + count(packetPushStarted) - count(packetPulled) - count(packetRemoved) - count(packetDropped)))"
attr title "queue length"
attr unit pk
vector 193 SmartSubstationTopology.TSN_B_ACC_PROT.eth[2].queue queueBitLength:vector ETV
attr autoWarmupFilter false
attr interpolationmode sample-hold
attr recordingmode vector
attr source "warmup(atomic(constant0(packetPushEnded) + sum(packetLength(packetPushStarted)) - sum(packetLength(packetPulled)) - sum(packetLength(packetRemoved)) - sum(packetLength(packetDropped))))"
attr title "queue bit length"
attr unit b
vector 194 SmartSubstationTopology.TSN_B_ACC_PROT.eth[3].queue incomingPacketLengths:vector ETV
attr interpolationmode none
attr recordingmode vector
attr source packetLength(packetPushStarted)
attr title "incoming packet lengths"
attr unit b
vector 195 SmartSubstationTopology.TSN_B_ACC_PROT.eth[3].queue queueingTime:vector ETV
attr interpolationmode none
attr recordingmode vector
attr source queueingTime(packetPulled)
attr title "queueing times"
attr unit s
vector 196 SmartSubstationTopology.TSN_B_ACC_PROT.eth[3].queue outgoingPacketLengths:vector ETV
attr interpolationmode none
attr recordingmode vector
attr source packetLength(packetPulled)
attr title "outgoing packet lengths"
attr unit b
vector 197 SmartSubstationTopology.TSN_B_ACC_PROT.eth[3].mac packetReceivedFromUpper:vector(packetBytes) ETV
attr interpolationmode none
attr recordingmode vector(packetBytes)
attr source packetReceivedFromUpper
attr title "packet bytes from higher layer, packetBytes"
vector 198 SmartSubstationTopology.TSN_B_ACC_PROT.eth[3].queue queueLength:vector ETV
attr autoWarmupFilter false
attr interpolationmode sample-hold
attr recordingmode vector
attr source "warmup(atomic(constant0(packetPushEnded) + count(packetPushStarted) - count(packetPulled) - count(packetRemoved) - count(packetDropped)))"
attr title "queue length"
attr unit pk
vector 199 SmartSubstationTopology.TSN_B_ACC_PROT.eth[3].queue queueBitLength:vector ETV
attr autoWarmupFilter false
attr interpolationmode sample-hold
attr recordingmode vector
attr source "warmup(atomic(constant0(packetPushEnded) + sum(packetLength(packetPushStarted)) - sum(packetLength(packetPulled)) - sum(packetLength(packetRemoved)) - sum(packetLength(packetDropped))))"
attr title "queue bit length"
attr unit b
vector 200 SmartSubstationTopology.TSN_A_ACC_PROT.eth[1].mac txPk:vector(packetBytes) ETV
attr interpolationmode none
attr recordingmode vector(packetBytes)
attr source packetSentToLower
attr title "packets transmitted, packetBytes"
vector 201 SmartSubstationTopology.TSN_A_ACC_PROT.eth[2].mac txPk:vector(packetBytes) ETV
attr interpolationmode none
attr recordingmode vector(packetBytes)
attr source packetSentToLower
attr title "packets transmitted, packetBytes"
vector 202 SmartSubstationTopology.TSN_A_ACC_PROT.eth[3].mac txPk:vector(packetBytes) ETV
attr interpolationmode none
attr recordingmode vector(packetBytes)
attr source packetSentToLower
attr title "packets transmitted, packetBytes"
vector 203 SmartSubstationTopology.TSN_B_ACC_PROT.eth[1].mac txPk:vector(packetBytes) ETV
attr interpolationmode none
attr recordingmode vector(packetBytes)
attr source packetSentToLower
attr title "packets transmitted, packetBytes"
vector 204 SmartSubstationTopology.TSN_B_ACC_PROT.eth[2].mac txPk:vector(packetBytes) ETV
attr interpolationmode none
attr recordingmode vector(packetBytes)
attr source packetSentToLower
attr title "packets transmitted, packetBytes"
vector 205 SmartSubstationTopology.TSN_B_ACC_PROT.eth[3].mac txPk:vector(packetBytes) ETV
attr interpolationmode none
attr recordingmode vector(packetBytes)
attr source packetSentToLower
attr title "packets transmitted, packetBytes"
vector 206 SmartSubstationTopology.Protection_A.eth[0].mac rxPkOk:vector(packetBytes) ETV
attr interpolationmode none
attr recordingmode vector(packetBytes)
attr source rxPkOk
attr title "packets received OK, packetBytes"
vector 207 SmartSubstationTopology.Protection_A.eth[0].mac passedUpPk:vector(packetBytes) ETV
attr interpolationmode none
attr recordingmode vector(packetBytes)
attr source packetSentToUpper
attr title "packets passed to higher layer, packetBytes"
vector 208 SmartSubstationTopology.IT_A.eth[0].mac rxPkOk:vector(packetBytes) ETV
attr interpolationmode none
attr recordingmode vector(packetBytes)
attr source rxPkOk
attr title "packets received OK, packetBytes"
vector 209 SmartSubstationTopology.IT_A.eth[0].mac passedUpPk:vector(packetBytes) ETV
attr interpolationmode none
attr recordingmode vector(packetBytes)
attr source packetSentToUpper
attr title "packets passed to higher layer, packetBytes"
vector 210 SmartSubstationTopology.Protection_B.eth[0].mac rxPkOk:vector(packetBytes) ETV
attr interpolationmode none
attr recordingmode vector(packetBytes)
attr source rxPkOk
attr title "packets received OK, packetBytes"
vector 211 SmartSubstationTopology.Protection_B.eth[0].mac passedUpPk:vector(packetBytes) ETV
attr interpolationmode none
attr recordingmode vector(packetBytes)
attr source packetSentToUpper
attr title "packets passed to higher layer, packetBytes"
vector 212 SmartSubstationTopology.IT_B.eth[0].mac rxPkOk:vector(packetBytes) ETV
attr interpolationmode none
attr recordingmode vector(packetBytes)
attr source rxPkOk
attr title "packets received OK, packetBytes"
vector 213 SmartSubstationTopology.IT_B.eth[0].mac passedUpPk:vector(packetBytes) ETV
attr interpolationmode none
attr recordingmode vector(packetBytes)
attr source packetSentToUpper
attr title "packets passed to higher layer, packetBytes"
vector 214 SmartSubstationTopology.Protection_A.ethernet decapPk:vector(packetBytes) ETV
attr interpolationmode none
attr recordingmode vector(packetBytes)
attr source decapPk
attr title "packets decapsulated, packetBytes"
vector 215 SmartSubstationTopology.IT_A.ethernet decapPk:vector(packetBytes) ETV
attr interpolationmode none
attr recordingmode vector(packetBytes)
attr source decapPk
attr title "packets decapsulated, packetBytes"
vector 216 SmartSubstationTopology.Protection_B.ethernet decapPk:vector(packetBytes) ETV
attr interpolationmode none
attr recordingmode vector(packetBytes)
attr source decapPk
attr title "packets decapsulated, packetBytes"
vector 217 SmartSubstationTopology.IT_B.ethernet decapPk:vector(packetBytes) ETV
attr interpolationmode none
attr recordingmode vector(packetBytes)
attr source decapPk
attr title "packets decapsulated, packetBytes"
vector 218 SmartSubstationTopology.Protection_A.ipv4.arp arpReplySent:vector(packetBytes) ETV
attr recordingmode vector(packetBytes)
attr source arpReplySent
attr title "ARP replies sent, packetBytes"
vector 219 SmartSubstationTopology.Protection_B.ipv4.arp arpReplySent:vector(packetBytes) ETV
attr recordingmode vector(packetBytes)
attr source arpReplySent
attr title "ARP replies sent, packetBytes"
vector 220 SmartSubstationTopology.Protection_A.ethernet encapPk:vector(packetBytes) ETV
attr interpolationmode none
attr recordingmode vector(packetBytes)
attr source encapPk
attr title "packets encapsulated, packetBytes"
vector 221 SmartSubstationTopology.Protection_B.ethernet encapPk:vector(packetBytes) ETV
attr interpolationmode none
attr recordingmode vector(packetBytes)
attr source encapPk
attr title "packets encapsulated, packetBytes"
vector 222 SmartSubstationTopology.Protection_A.eth[0].queue incomingPacketLengths:vector ETV
attr interpolationmode none
attr recordingmode vector
attr source packetLength(packetPushStarted)
attr title "incoming packet lengths"
attr unit b
vector 223 SmartSubstationTopology.Protection_A.eth[0].queue queueingTime:vector ETV
attr interpolationmode none
attr recordingmode vector
attr source queueingTime(packetPulled)
attr title "queueing times"
attr unit s
vector 224 SmartSubstationTopology.Protection_A.eth[0].queue outgoingPacketLengths:vector ETV
attr interpolationmode none
attr recordingmode vector
attr source packetLength(packetPulled)
attr title "outgoing packet lengths"
attr unit b
vector 225 SmartSubstationTopology.Protection_A.eth[0].mac packetReceivedFromUpper:vector(packetBytes) ETV
attr interpolationmode none
attr recordingmode vector(packetBytes)
attr source packetReceivedFromUpper
attr title "packet bytes from higher layer, packetBytes"
vector 226 SmartSubstationTopology.Protection_A.eth[0].queue queueLength:vector ETV
attr autoWarmupFilter false
attr interpolationmode sample-hold
attr recordingmode vector
attr source "warmup(atomic(constant0(packetPushEnded) + count(packetPushStarted) - count(packetPulled) - count(packetRemoved) - count(packetDropped)))"
attr title "queue length"
attr unit pk
vector 227 SmartSubstationTopology.Protection_A.eth[0].queue queueBitLength:vector ETV
attr autoWarmupFilter false
attr interpolationmode sample-hold
attr recordingmode vector
attr source "warmup(atomic(constant0(packetPushEnded) + sum(packetLength(packetPushStarted)) - sum(packetLength(packetPulled)) - sum(packetLength(packetRemoved)) - sum(packetLength(packetDropped))))"
attr title "queue bit length"
attr unit b
vector 228 SmartSubstationTopology.Protection_B.eth[0].queue incomingPacketLengths:vector ETV
attr interpolationmode none
attr recordingmode vector
attr source packetLength(packetPushStarted)
attr title "incoming packet lengths"
attr unit b
vector 229 SmartSubstationTopology.Protection_B.eth[0].queue queueingTime:vector ETV
attr interpolationmode none
attr recordingmode vector
attr source queueingTime(packetPulled)
attr title "queueing times"
attr unit s
vector 230 SmartSubstationTopology.Protection_B.eth[0].queue outgoingPacketLengths:vector ETV
attr interpolationmode none
attr recordingmode vector
attr source packetLength(packetPulled)
attr title "outgoing packet lengths"
attr unit b
vector 231 SmartSubstationTopology.Protection_B.eth[0].mac packetReceivedFromUpper:vector(packetBytes) ETV
attr interpolationmode none
attr recordingmode vector(packetBytes)
attr source packetReceivedFromUpper
attr title "packet bytes from higher layer, packetBytes"
vector 232 SmartSubstationTopology.Protection_B.eth[0].queue queueLength:vector ETV
attr autoWarmupFilter false
attr interpolationmode sample-hold
attr recordingmode vector
attr source "warmup(atomic(constant0(packetPushEnded) + count(packetPushStarted) - count(packetPulled) - count(packetRemoved) - count(packetDropped)))"
attr title "queue length"
attr unit pk
vector 233 SmartSubstationTopology.Protection_B.eth[0].queue queueBitLength:vector ETV
attr autoWarmupFilter false
attr interpolationmode sample-hold
attr recordingmode vector
attr source "warmup(atomic(constant0(packetPushEnded) + sum(packetLength(packetPushStarted)) - sum(packetLength(packetPulled)) - sum(packetLength(packetRemoved)) - sum(packetLength(packetDropped))))"
attr title "queue bit length"
attr unit b
vector 234 SmartSubstationTopology.Protection_A.eth[0].mac txPk:vector(packetBytes) ETV
attr interpolationmode none
attr recordingmode vector(packetBytes)
attr source packetSentToLower
attr title "packets transmitted, packetBytes"
vector 235 SmartSubstationTopology.Protection_B.eth[0].mac txPk:vector(packetBytes) ETV
attr interpolationmode none
attr recordingmode vector(packetBytes)
attr source packetSentToLower
attr title "packets transmitted, packetBytes"
vector 236 SmartSubstationTopology.TSN_A.eth[0].mac rxPkOk:vector(packetBytes) ETV
attr interpolationmode none
attr recordingmode vector(packetBytes)
attr source rxPkOk
attr title "packets received OK, packetBytes"
vector 237 SmartSubstationTopology.TSN_A.eth[0].mac passedUpPk:vector(packetBytes) ETV
attr interpolationmode none
attr recordingmode vector(packetBytes)
attr source packetSentToUpper
attr title "packets passed to higher layer, packetBytes"
vector 238 SmartSubstationTopology.TSN_B.eth[0].mac rxPkOk:vector(packetBytes) ETV
attr interpolationmode none
attr recordingmode vector(packetBytes)
attr source rxPkOk
attr title "packets received OK, packetBytes"
vector 239 SmartSubstationTopology.TSN_B.eth[0].mac passedUpPk:vector(packetBytes) ETV
attr interpolationmode none
attr recordingmode vector(packetBytes)
attr source packetSentToUpper
attr title "packets passed to higher layer, packetBytes"
vector 240 SmartSubstationTopology.TSN_A.ethernet decapPk:vector(packetBytes) ETV
attr interpolationmode none
attr recordingmode vector(packetBytes)
attr source decapPk
attr title "packets decapsulated, packetBytes"
vector 241 SmartSubstationTopology.TSN_B.ethernet decapPk:vector(packetBytes) ETV
attr interpolationmode none
attr recordingmode vector(packetBytes)
attr source decapPk
attr title "packets decapsulated, packetBytes"
vector 242 SmartSubstationTopology.TSN_A.ethernet encapPk:vector(packetBytes) ETV
attr interpolationmode none
attr recordingmode vector(packetBytes)
attr source encapPk
attr title "packets encapsulated, packetBytes"
vector 243 SmartSubstationTopology.TSN_B.ethernet encapPk:vector(packetBytes) ETV
attr interpolationmode none
attr recordingmode vector(packetBytes)
attr source encapPk
attr title "packets encapsulated, packetBytes"
vector 244 SmartSubstationTopology.TSN_A.eth[1].queue incomingPacketLengths:vector ETV
attr interpolationmode none
attr recordingmode vector
attr source packetLength(packetPushStarted)
attr title "incoming packet lengths"
attr unit b
vector 245 SmartSubstationTopology.TSN_A.eth[1].queue queueingTime:vector ETV
attr interpolationmode none
attr recordingmode vector
attr source queueingTime(packetPulled)
attr title "queueing times"
attr unit s
vector 246 SmartSubstationTopology.TSN_A.eth[1].queue outgoingPacketLengths:vector ETV
attr interpolationmode none
attr recordingmode vector
attr source packetLength(packetPulled)
attr title "outgoing packet lengths"
attr unit b
vector 247 SmartSubstationTopology.TSN_A.eth[1].mac packetReceivedFromUpper:vector(packetBytes) ETV
attr interpolationmode none
attr recordingmode vector(packetBytes)
attr source packetReceivedFromUpper
attr title "packet bytes from higher layer, packetBytes"
vector 248 SmartSubstationTopology.TSN_A.eth[1].queue queueLength:vector ETV
attr autoWarmupFilter false
attr interpolationmode sample-hold
attr recordingmode vector
attr source "warmup(atomic(constant0(packetPushEnded) + count(packetPushStarted) - count(packetPulled) - count(packetRemoved) - count(packetDropped)))"
attr title "queue length"
attr unit pk
vector 249 SmartSubstationTopology.TSN_A.eth[1].queue queueBitLength:vector ETV
attr autoWarmupFilter false
attr interpolationmode sample-hold
attr recordingmode vector
attr source "warmup(atomic(constant0(packetPushEnded) + sum(packetLength(packetPushStarted)) - sum(packetLength(packetPulled)) - sum(packetLength(packetRemoved)) - sum(packetLength(packetDropped))))"
attr title "queue bit length"
attr unit b
vector 250 SmartSubstationTopology.TSN_A.eth[2].queue incomingPacketLengths:vector ETV
attr interpolationmode none
attr recordingmode vector
attr source packetLength(packetPushStarted)
attr title "incoming packet lengths"
attr unit b
vector 251 SmartSubstationTopology.TSN_A.eth[2].queue queueingTime:vector ETV
attr interpolationmode none
attr recordingmode vector
attr source queueingTime(packetPulled)
attr title "queueing times"
attr unit s
vector 252 SmartSubstationTopology.TSN_A.eth[2].queue outgoingPacketLengths:vector ETV
attr interpolationmode none
attr recordingmode vector
attr source packetLength(packetPulled)
attr title "outgoing packet lengths"
attr unit b
vector 253 SmartSubstationTopology.TSN_A.eth[2].mac packetReceivedFromUpper:vector(packetBytes) ETV
attr interpolationmode none
attr recordingmode vector(packetBytes)
attr source packetReceivedFromUpper
attr title "packet bytes from higher layer, packetBytes"
vector 254 SmartSubstationTopology.TSN_A.eth[2].queue queueLength:vector ETV
attr autoWarmupFilter false
attr interpolationmode sample-hold
attr recordingmode vector
attr source "warmup(atomic(constant0(packetPushEnded) + count(packetPushStarted) - count(packetPulled) - count(packetRemoved) - count(packetDropped)))"
attr title "queue length"
attr unit pk
vector 255 SmartSubstationTopology.TSN_A.eth[2].queue queueBitLength:vector ETV
attr autoWarmupFilter false
attr interpolationmode sample-hold
attr recordingmode vector
attr source "warmup(atomic(constant0(packetPushEnded) + sum(packetLength(packetPushStarted)) - sum(packetLength(packetPulled)) - sum(packetLength(packetRemoved)) - sum(packetLength(packetDropped))))"
attr title "queue bit length"
[...]
907	976223 38 16081 16081 0.028448272 0.028448272 1 53992.73460265 53992.73460265 53992.73460265 2915215389.8722
908	976261 38 16081 16081 0.028448272 0.028448272 1 53992.73460265 53992.73460265 53992.73460265 2915215389.8722
909	976299 38 16081 16081 0.028448272 0.028448272 1 53992.73460265 53992.73460265 53992.73460265 2915215389.8722
910	976337 38 16081 16081 0.028448272 0.028448272 1 53992.73460265 53992.73460265 53992.73460265 2915215389.8722
911	976375 38 16081 16081 0.028448272 0.028448272 1 53992.73460265 53992.73460265 53992.73460265 2915215389.8722
912	976413 38 16081 16081 0.028448272 0.028448272 1 53992.73460265 53992.73460265 53992.73460265 2915215389.8722
913	976451 38 16081 16081 0.028448272 0.028448272 1 53992.73460265 53992.73460265 53992.73460265 2915215389.8722
914	976489 38 16081 16081 0.028448272 0.028448272 1 53992.73460265 53992.73460265 53992.73460265 2915215389.8722
915	976527 25 16081 16081 0.028448272 0.028448272 1 0 0 0 0
916	976552 25 16081 16081 0.028448272 0.028448272 1 0 0 0 0
917	976577 25 16081 16081 0.028448272 0.028448272 1 0 0 0 0
918	976602 25 16081 16081 0.028448272 0.028448272 1 0 0 0 0
919	976627 38 16081 16081 0.028448272 0.028448272 1 53992.73460265 53992.73460265 53992.73460265 2915215389.8722
920	976665 38 16081 16081 0.028448272 0.028448272 1 53992.73460265 53992.73460265 53992.73460265 2915215389.8722
921	976703 38 16081 16081 0.028448272 0.028448272 1 53992.73460265 53992.73460265 53992.73460265 2915215389.8722
922	976741 38 16081 16081 0.028448272 0.028448272 1 53992.73460265 53992.73460265 53992.73460265 2915215389.8722
923	976779 38 16081 16081 0.028448272 0.028448272 1 53992.73460265 53992.73460265 53992.73460265 2915215389.8722
924	976817 38 16081 16081 0.028448272 0.028448272 1 53992.73460265 53992.73460265 53992.73460265 2915215389.8722
925	976855 38 16081 16081 0.028448272 0.028448272 1 53992.73460265 53992.73460265 53992.73460265 2915215389.8722
926	976893 38 16081 16081 0.028448272 0.028448272 1 53992.73460265 53992.73460265 53992.73460265 2915215389.8722
927	976931 38 16081 16081 0.028448272 0.028448272 1 53992.73460265 53992.73460265 53992.73460265 2915215389.8722
928	976969 38 16081 16081 0.028448272 0.028448272 1 53992.73460265 53992.73460265 53992.73460265 2915215389.8722
929	977007 38 16081 16081 0.028448272 0.028448272 1 53992.73460265 53992.73460265 53992.73460265 2915215389.8722
930	977045 38 16081 16081 0.028448272 0.028448272 1 53992.73460265 53992.73460265 53992.73460265 2915215389.8722
931	977083 25 16081 16081 0.028448272 0.028448272 1 0 0 0 0
932	977108 25 16081 16081 0.028448272 0.028448272 1 0 0 0 0
933	977133 38 16081 16081 0.028448272 0.028448272 1 25871.51866377 25871.51866377 25871.51866377 669335477.96979
934	977171 38 16081 16081 0.028448272 0.028448272 1 25871.51866377 25871.51866377 25871.51866377 669335477.96979
935	977209 25 16081 16081 0.028448272 0.028448272 1 0 0 0 0
936	977234 25 16081 16081 0.028448272 0.028448272 1 0 0 0 0
937	977259 25 16081 16081 0.028448272 0.028448272 1 0 0 0 0
938	977284 25 16081 16081 0.028448272 0.028448272 1 0 0 0 0
939	977309 25 16081 16081 0.028448272 0.028448272 1 0 0 0 0
940	977334 25 16081 16081 0.028448272 0.028448272 1 0 0 0 0
941	977359 25 16081 16081 0.028448272 0.028448272 1 0 0 0 0
942	977384 25 16081 16081 0.028448272 0.028448272 1 0 0 0 0
943	977409 25 16081 16081 0.028448272 0.028448272 1 0 0 0 0
944	977434 25 16081 16081 0.028448272 0.028448272 1 0 0 0 0
945	977459 25 16081 16081 0.028448272 0.028448272 1 0 0 0 0
946	977484 25 16081 16081 0.028448272 0.028448272 1 0 0 0 0
947	977509 25 16081 16081 0.028448272 0.028448272 1 0 0 0 0
948	977534 25 16081 16081 0.028448272 0.028448272 1 0 0 0 0
949	977559 25 16081 16081 0.028448272 0.028448272 1 0 0 0 0
950	977584 25 16081 16081 0.028448272 0.028448272 1 0 0 0 0
951	977609 25 16081 16081 0.028448272 0.028448272 1 0 0 0 0
952	977634 25 16081 16081 0.028448272 0.028448272 1 0 0 0 0
953	977659 25 16081 16081 0.028448272 0.028448272 1 0 0 0 0
954	977684 25 16081 16081 0.028448272 0.028448272 1 0 0 0 0
955	977709 25 16081 16081 0.028448272 0.028448272 1 0 0 0 0
956	977734 25 16081 16081 0.028448272 0.028448272 1 0 0 0 0
957	977759 25 16081 16081 0.028448272 0.028448272 1 0 0 0 0
958	977784 25 16081 16081 0.028448272 0.028448272 1 0 0 0 0
959	977809 25 16081 16081 0.028448272 0.028448272 1 0 0 0 0
960	977834 25 16081 16081 0.028448272 0.028448272 1 0 0 0 0
961	977859 25 16081 16081 0.028448272 0.028448272 1 0 0 0 0
962	977884 25 16081 16081 0.028448272 0.028448272 1 0 0 0 0
963	977909 25 16081 16081 0.028448272 0.028448272 1 0 0 0 0
964	977934 25 16081 16081 0.028448272 0.028448272 1 0 0 0 0
965	977959 25 16081 16081 0.028448272 0.028448272 1 0 0 0 0
966	977984 25 16081 16081 0.028448272 0.028448272 1 0 0 0 0
967	978009 25 16081 16081 0.028448272 0.028448272 1 0 0 0 0
968	978034 25 16081 16081 0.028448272 0.028448272 1 0 0 0 0
969	978059 25 16081 16081 0.028448272 0.028448272 1 0 0 0 0
970	978084 25 16081 16081 0.028448272 0.028448272 1 0 0 0 0
971	978109 25 16081 16081 0.028448272 0.028448272 1 0 0 0 0
972	978134 25 16081 16081 0.028448272 0.028448272 1 0 0 0 0
973	978159 25 16081 16081 0.028448272 0.028448272 1 0 0 0 0
974	978184 25 16081 16081 0.028448272 0.028448272 1 0 0 0 0
975	978209 25 16081 16081 0.028448272 0.028448272 1 0 0 0 0
976	978234 25 16081 16081 0.028448272 0.028448272 1 0 0 0 0
977	978259 25 16081 16081 0.028448272 0.028448272 1 0 0 0 0
978	978284 25 16081 16081 0.028448272 0.028448272 1 0 0 0 0
979	978309 25 16081 16081 0.028448272 0.028448272 1 0 0 0 0
980	978334 25 16081 16081 0.028448272 0.028448272 1 0 0 0 0
981	978359 25 16081 16081 0.028448272 0.028448272 1 0 0 0 0
982	978384 25 16081 16081 0.028448272 0.028448272 1 0 0 0 0
983	978409 25 16081 16081 0.028448272 0.028448272 1 0 0 0 0
984	978434 25 16081 16081 0.028448272 0.028448272 1 0 0 0 0
985	978459 25 16081 16081 0.028448272 0.028448272 1 0 0 0 0
986	978484 25 16081 16081 0.028448272 0.028448272 1 0 0 0 0
987	978509 25 16081 16081 0.028448272 0.028448272 1 0 0 0 0
988	978534 25 16081 16081 0.028448272 0.028448272 1 0 0 0 0
989	978559 25 16081 16081 0.028448272 0.028448272 1 0 0 0 0
990	978584 25 16081 16081 0.028448272 0.028448272 1 0 0 0 0
991	978609 25 16081 16081 0.028448272 0.028448272 1 0 0 0 0
992	978634 25 16081 16081 0.028448272 0.028448272 1 0 0 0 0
993	978659 25 16081 16081 0.028448272 0.028448272 1 0 0 0 0
994	978684 25 16081 16081 0.028448272 0.028448272 1 0 0 0 0
995	978709 25 16081 16081 0.028448272 0.028448272 1 0 0 0 0
996	978734 25 16081 16081 0.028448272 0.028448272 1 0 0 0 0
997	978759 25 16081 16081 0.028448272 0.028448272 1 0 0 0 0
998	978784 25 16081 16081 0.028448272 0.028448272 1 0 0 0 0
999	978809 25 16081 16081 0.028448272 0.028448272 1 0 0 0 0
1000	978834 26 16081 16081 0.028448272 0.028448272 1 0 0 0 0
1001	978860 26 16081 16081 0.028448272 0.028448272 1 0 0 0 0
1002	978886 26 16081 16081 0.028448272 0.028448272 1 0 0 0 0
1003	978912 26 16081 16081 0.028448272 0.028448272 1 0 0 0 0
1004	978938 26 16081 16081 0.028448272 0.028448272 1 0 0 0 0
1005	978964 40 16081 16081 0.028448272 0.028448272 1 4220432.0881071 4220432.0881071 4220432.0881071 17812047010324
1006	979004 40 16081 16081 0.028448272 0.028448272 1 4220432.0881071 4220432.0881071 4220432.0881071 17812047010324
1007	979044 39 16081 16081 0.028448272 0.028448272 1 53992.73460265 53992.73460265 53992.73460265 2915215389.8722
1008	979083 39 16081 16081 0.028448272 0.028448272 1 53992.73460265 53992.73460265 53992.73460265 2915215389.8722
1009	979122 39 16081 16081 0.028448272 0.028448272 1 53992.73460265 53992.73460265 53992.73460265 2915215389.8722
1010	979161 39 16081 16081 0.028448272 0.028448272 1 53992.73460265 53992.73460265 53992.73460265 2915215389.8722
1011	979200 39 16081 16081 0.028448272 0.028448272 1 53992.73460265 53992.73460265 53992.73460265 2915215389.8722
1012	979239 39 16081 16081 0.028448272 0.028448272 1 53992.73460265 53992.73460265 53992.73460265 2915215389.8722
1013	979278 39 16081 16081 0.028448272 0.028448272 1 53992.73460265 53992.73460265 53992.73460265 2915215389.8722
1014	979317 39 16081 16081 0.028448272 0.028448272 1 53992.73460265 53992.73460265 53992.73460265 2915215389.8722
1015	979356 39 16081 16081 0.028448272 0.028448272 1 53992.73460265 53992.73460265 53992.73460265 2915215389.8722
1016	979395 39 16081 16081 0.028448272 0.028448272 1 53992.73460265 53992.73460265 53992.73460265 2915215389.8722
1017	979434 39 16081 16081 0.028448272 0.028448272 1 53992.73460265 53992.73460265 53992.73460265 2915215389.8722
1018	979473 39 16081 16081 0.028448272 0.028448272 1 53992.73460265 53992.73460265 53992.73460265 2915215389.8722
1019	979512 39 16081 16081 0.028448272 0.028448272 1 53992.73460265 53992.73460265 53992.73460265 2915215389.8722
1020	979551 39 16081 16081 0.028448272 0.028448272 1 53992.73460265 53992.73460265 53992.73460265 2915215389.8722
1021	979590 39 16081 16081 0.028448272 0.028448272 1 53992.73460265 53992.73460265 53992.73460265 2915215389.8722
1022	979629 39 16081 16081 0.028448272 0.028448272 1 53992.73460265 53992.73460265 53992.73460265 2915215389.8722
1023	979668 26 16081 16081 0.028448272 0.028448272 1 0 0 0 0
1024	979694 26 16081 16081 0.028448272 0.028448272 1 0 0 0 0
1025	979720 39 16081 16081 0.028448272 0.028448272 1 53992.73460265 53992.73460265 53992.73460265 2915215389.8722
1026	979759 39 16081 16081 0.028448272 0.028448272 1 53992.73460265 53992.73460265 53992.73460265 2915215389.8722
1027	979798 39 16081 16081 0.028448272 0.028448272 1 53992.73460265 53992.73460265 53992.73460265 2915215389.8722
1028	979837 39 16081 16081 0.028448272 0.028448272 1 53992.73460265 53992.73460265 53992.73460265 2915215389.8722
1029	979876 26 16081 16081 0.028448272 0.028448272 1 0 0 0 0
1030	979902 26 16081 16081 0.028448272 0.028448272 1 0 0 0 0
1031	979928 39 16081 16081 0.028448272 0.028448272 1 53992.73460265 53992.73460265 53992.73460265 2915215389.8722
1032	979967 39 16081 16081 0.028448272 0.028448272 1 53992.73460265 53992.73460265 53992.73460265 2915215389.8722
1033	980006 26 16081 16081 0.028448272 0.028448272 1 0 0 0 0
1034	980032 26 16081 16081 0.028448272 0.028448272 1 0 0 0 0
1035	980058 26 16081 16081 0.028448272 0.028448272 1 0 0 0 0
1036	980084 26 16081 16081 0.028448272 0.028448272 1 0 0 0 0
1037	980110 39 16081 16081 0.028448272 0.028448272 1 53992.73460265 53992.73460265 53992.73460265 2915215389.8722
1038	980149 39 16081 16081 0.028448272 0.028448272 1 53992.73460265 53992.73460265 53992.73460265 2915215389.8722
1039	980188 26 16081 16081 0.028448272 0.028448272 1 0 0 0 0
1040	980214 26 16081 16081 0.028448272 0.028448272 1 0 0 0 0
1041	980240 26 16081 16081 0.028448272 0.028448272 1 0 0 0 0
1042	980266 26 16081 16081 0.028448272 0.028448272 1 0 0 0 0
1043	980292 39 16081 16081 0.028448272 0.028448272 1 53992.73460265 53992.73460265 53992.73460265 2915215389.8722
1044	980331 39 16081 16081 0.028448272 0.028448272 1 53992.73460265 53992.73460265 53992.73460265 2915215389.8722
1045	980370 26 16081 16081 0.028448272 0.028448272 1 0 0 0 0
1046	980396 26 16081 16081 0.028448272 0.028448272 1 0 0 0 0
1047	980422 26 16081 16081 0.028448272 0.028448272 1 0 0 0 0
1048	980448 26 16081 16081 0.028448272 0.028448272 1 0 0 0 0
1049	980474 39 16081 16081 0.028448272 0.028448272 1 53992.73460265 53992.73460265 53992.73460265 2915215389.8722
1050	980513 39 16081 16081 0.028448272 0.028448272 1 53992.73460265 53992.73460265 53992.73460265 2915215389.8722
1051	980552 39 16081 16081 0.028448272 0.028448272 1 53992.73460265 53992.73460265 53992.73460265 2915215389.8722
1052	980591 39 16081 16081 0.028448272 0.028448272 1 53992.73460265 53992.73460265 53992.73460265 2915215389.8722
1053	980630 39 16081 16081 0.028448272 0.028448272 1 53992.73460265 53992.73460265 53992.73460265 2915215389.8722
1054	980669 39 16081 16081 0.028448272 0.028448272 1 53992.73460265 53992.73460265 53992.73460265 2915215389.8722
1055	980708 39 16081 16081 0.028448272 0.028448272 1 53992.73460265 53992.73460265 53992.73460265 2915215389.8722
1056	980747 39 16081 16081 0.028448272 0.028448272 1 53992.73460265 53992.73460265 53992.73460265 2915215389.8722
1057	980786 39 16081 16081 0.028448272 0.028448272 1 53992.73460265 53992.73460265 53992.73460265 2915215389.8722
1058	980825 39 16081 16081 0.028448272 0.028448272 1 53992.73460265 53992.73460265 53992.73460265 2915215389.8722
1059	980864 39 16081 16081 0.028448272 0.028448272 1 53992.73460265 53992.73460265 53992.73460265 2915215389.8722
1060	980903 39 16081 16081 0.028448272 0.028448272 1 53992.73460265 53992.73460265 53992.73460265 2915215389.8722
1061	980942 26 16081 16081 0.028448272 0.028448272 1 0 0 0 0
1062	980968 26 16081 16081 0.028448272 0.028448272 1 0 0 0 0
1063	980994 26 16081 16081 0.028448272 0.028448272 1 0 0 0 0
1064	981020 26 16081 16081 0.028448272 0.028448272 1 0 0 0 0
1065	981046 39 16081 16081 0.028448272 0.028448272 1 53992.73460265 53992.73460265 53992.73460265 2915215389.8722
1066	981085 39 16081 16081 0.028448272 0.028448272 1 53992.73460265 53992.73460265 53992.73460265 2915215389.8722
1067	981124 39 16081 16081 0.028448272 0.028448272 1 53992.73460265 53992.73460265 53992.73460265 2915215389.8722
1068	981163 39 16081 16081 0.028448272 0.028448272 1 53992.73460265 53992.73460265 53992.73460265 2915215389.8722
1069	981202 39 16081 16081 0.028448272 0.028448272 1 53992.73460265 53992.73460265 53992.73460265 2915215389.8722
1070	981241 39 16081 16081 0.028448272 0.028448272 1 53992.73460265 53992.73460265 53992.73460265 2915215389.8722
1071	981280 39 16081 16081 0.028448272 0.028448272 1 53992.73460265 53992.73460265 53992.73460265 2915215389.8722
1072	981319 39 16081 16081 0.028448272 0.028448272 1 53992.73460265 53992.73460265 53992.73460265 2915215389.8722
1073	981358 39 16081 16081 0.028448272 0.028448272 1 53992.73460265 53992.73460265 53992.73460265 2915215389.8722
1074	981397 39 16081 16081 0.028448272 0.028448272 1 53992.73460265 53992.73460265 53992.73460265 2915215389.8722
1075	981436 39 16081 16081 0.028448272 0.028448272 1 53992.73460265 53992.73460265 53992.73460265 2915215389.8722
1076	981475 39 16081 16081 0.028448272 0.028448272 1 53992.73460265 53992.73460265 53992.73460265 2915215389.8722
1077	981514 26 16081 16081 0.028448272 0.028448272 1 0 0 0 0
1078	981540 26 16081 16081 0.028448272 0.028448272 1 0 0 0 0
1079	981566 39 16081 16081 0.028448272 0.028448272 1 25871.51866377 25871.51866377 25871.51866377 669335477.96979
1080	981605 39 16081 16081 0.028448272 0.028448272 1 25871.51866377 25871.51866377 25871.51866377 669335477.96979
1081	981644 26 16081 16081 0.028448272 0.028448272 1 0 0 0 0
1082	981670 26 16081 16081 0.028448272 0.028448272 1 0 0 0 0
1083	981696 26 16081 16081 0.028448272 0.028448272 1 0 0 0 0
1084	981722 26 16081 16081 0.028448272 0.028448272 1 0 0 0 0
1085	981748 26 16081 16081 0.028448272 0.028448272 1 0 0 0 0
1086	981774 26 16081 16081 0.028448272 0.028448272 1 0 0 0 0
1087	981800 26 16081 16081 0.028448272 0.028448272 1 0 0 0 0
1088	981826 26 16081 16081 0.028448272 0.028448272 1 0 0 0 0
1089	981852 26 16081 16081 0.028448272 0.028448272 1 0 0 0 0
1090	981878 26 16081 16081 0.028448272 0.028448272 1 0 0 0 0
1091	981904 26 16081 16081 0.028448272 0.028448272 1 0 0 0 0
1092	981930 26 16081 16081 0.028448272 0.028448272 1 0 0 0 0
1093	981956 26 16081 16081 0.028448272 0.028448272 1 0 0 0 0
1094	981982 26 16081 16081 0.028448272 0.028448272 1 0 0 0 0
1095	982008 26 16081 16081 0.028448272 0.028448272 1 0 0 0 0
1096	982034 26 16081 16081 0.028448272 0.028448272 1 0 0 0 0
1097	982060 26 16081 16081 0.028448272 0.028448272 1 0 0 0 0
1098	982086 26 16081 16081 0.028448272 0.028448272 1 0 0 0 0
1099	982112 26 16081 16081 0.028448272 0.028448272 1 0 0 0 0
1100	982138 26 16081 16081 0.028448272 0.028448272 1 0 0 0 0
1101	982164 26 16081 16081 0.028448272 0.028448272 1 0 0 0 0
1102	982190 26 16081 16081 0.028448272 0.028448272 1 0 0 0 0
1103	982216 26 16081 16081 0.028448272 0.028448272 1 0 0 0 0
1104	982242 26 16081 16081 0.028448272 0.028448272 1 0 0 0 0
1105	982268 26 16081 16081 0.028448272 0.028448272 1 0 0 0 0
1106	982294 26 16081 16081 0.028448272 0.028448272 1 0 0 0 0
1107	982320 26 16081 16081 0.028448272 0.028448272 1 0 0 0 0
1108	982346 26 16081 16081 0.028448272 0.028448272 1 0 0 0 0
1109	982372 26 16081 16081 0.028448272 0.028448272 1 0 0 0 0
1110	982398 26 16081 16081 0.028448272 0.028448272 1 0 0 0 0
1111	982424 26 16081 16081 0.028448272 0.028448272 1 0 0 0 0
1112	982450 26 16081 16081 0.028448272 0.028448272 1 0 0 0 0
1113	982476 26 16081 16081 0.028448272 0.028448272 1 0 0 0 0
1114	982502 26 16081 16081 0.028448272 0.028448272 1 0 0 0 0
1115	982528 26 16081 16081 0.028448272 0.028448272 1 0 0 0 0
1116	982554 26 16081 16081 0.028448272 0.028448272 1 0 0 0 0
1117	982580 26 16081 16081 0.028448272 0.028448272 1 0 0 0 0
1118	982606 26 16081 16081 0.028448272 0.028448272 1 0 0 0 0
1119	982632 26 16081 16081 0.028448272 0.028448272 1 0 0 0 0
1120	982658 26 16081 16081 0.028448272 0.028448272 1 0 0 0 0
1121	982684 26 16081 16081 0.028448272 0.028448272 1 0 0 0 0
1122	982710 26 16081 16081 0.028448272 0.028448272 1 0 0 0 0
1123	982736 26 16081 16081 0.028448272 0.028448272 1 0 0 0 0
1124	982762 26 16081 16081 0.028448272 0.028448272 1 0 0 0 0
1125	982788 26 16081 16081 0.028448272 0.028448272 1 0 0 0 0
1126	982814 26 16081 16081 0.028448272 0.028448272 1 0 0 0 0
1127	982840 26 16081 16081 0.028448272 0.028448272 1 0 0 0 0
1128	982866 26 16081 16081 0.028448272 0.028448272 1 0 0 0 0
1129	982892 26 16081 16081 0.028448272 0.028448272 1 0 0 0 0
1130	982918 26 16081 16081 0.028448272 0.028448272 1 0 0 0 0
1131	982944 26 16081 16081 0.028448272 0.028448272 1 0 0 0 0
1132	982970 26 16081 16081 0.028448272 0.028448272 1 0 0 0 0
1133	982996 26 16081 16081 0.028448272 0.028448272 1 0 0 0 0
1134	983022 26 16081 16081 0.028448272 0.028448272 1 0 0 0 0
1135	983048 26 16081 16081 0.028448272 0.028448272 1 0 0 0 0
1136	983074 26 16081 16081 0.028448272 0.028448272 1 0 0 0 0
1137	983100 26 16081 16081 0.028448272 0.028448272 1 0 0 0 0
1138	983126 26 16081 16081 0.028448272 0.028448272 1 0 0 0 0
1139	983152 26 16081 16081 0.028448272 0.028448272 1 0 0 0 0
1140	983178 26 16081 16081 0.028448272 0.028448272 1 0 0 0 0
1141	983204 26 16081 16081 0.028448272 0.028448272 1 0 0 0 0
1142	983230 26 16081 16081 0.028448272 0.028448272 1 0 0 0 0
1143	983256 26 16081 16081 0.028448272 0.028448272 1 0 0 0 0
1144	983282 26 16081 16081 0.028448272 0.028448272 1 0 0 0 0
1145	983308 26 16081 16081 0.028448272 0.028448272 1 0 0 0 0
1146	983334 26 16081 16081 0.028448272 0.028448272 1 0 0 0 0
1147	983360 26 16081 16081 0.028448272 0.028448272 1 0 0 0 0
1148	983386 26 16081 16081 0.028448272 0.028448272 1 0 0 0 0
1149	983412 26 16081 16081 0.028448272 0.028448272 1 0 0 0 0
1150	983438 26 16081 16081 0.028448272 0.028448272 1 0 0 0 0
1151	983464 26 16081 16081 0.028448272 0.028448272 1 0 0 0 0
1152	983490 26 16081 16081 0.028448272 0.028448272 1 0 0 0 0
1153	983516 26 16081 16081 0.028448272 0.028448272 1 0 0 0 0
1154	983542 26 16081 16081 0.028448272 0.028448272 1 0 0 0 0
1155	983568 40 16081 16081 0.028448272 0.028448272 1 4628752.1435397 4628752.1435397 4628752.1435397 21425346406323
1156	983608 40 16081 16081 0.028448272 0.028448272 1 4628752.1435397 4628752.1435397 4628752.1435397 21425346406323
1157	983648 39 16081 16081 0.028448272 0.028448272 1 4681057.605186 4681057.605186 4681057.605186 21912300303070
1158	983687 39 16081 16081 0.028448272 0.028448272 1 4681057.605186 4681057.605186 4681057.605186 21912300303070
1159	983726 40 16081 16081 0.028448272 0.028448272 1 4582633.3493999 4582633.3493999 4582633.3493999 21000528415032
1160	983766 40 16081 16081 0.028448272 0.028448272 1 4582633.3493999 4582633.3493999 4582633.3493999 21000528415032
1161	983806 40 16081 16081 0.028448272 0.028448272 1 4582633.3493999 4582633.3493999 4582633.3493999 21000528415032
1162	983846 40 16081 16081 0.028448272 0.028448272 1 4582633.3493999 4582633.3493999 4582633.3493999 21000528415032

