file 163861216 1769581674                                       
version 3
run General-0-20260128-13:49:07-20628
attr configname General
attr datetime 20260128-13:49:07
attr datetimef 20260128-134907
attr experiment General
attr inifile demo.ini
attr iterationvars ""
attr iterationvarsd ""
attr iterationvarsf ""
attr measurement ""
attr network SmartSubstationTopology
attr processid 20628
attr repetition 0
attr replication #0
attr resultdir results
attr runnumber 0
attr seedset 0
config image-path ../inet4.5/images
config network SmartSubstationTopology
config sim-time-limit 10s
config ned-path .;src;../inet4.5/src
config *.configurator.typename IPv4NetworkConfigurator
config **.hasIpv4 true
config **.hasUdp true
config **.hasTcp false
config **.eth[*].datarate 10Gbps
config **.ppp[*].datarate 10Gbps
config *.MonitoringCenter_*.eth[*].datarate 10Gbps
config *.borderGateway1.hasIpv4 true
config *.borderGateway1.forwarding true
config *.borderGateway2.hasIpv4 true
config *.borderGateway2.forwarding true
config *.otnDevice.hasIpv4 true
config *.otnDevice.forwarding true
config **.eth[*].typename EthernetInterface
config **.ppp[*].typename PppInterface
config *.MU_A.numApps 1
config *.MU_A.app[0].typename src.apps.SvGeneratorApp
config *.MU_A.app[0].localDestAddress "\"Protection_A\""
config *.MU_A.app[0].localDestPort 2000
config *.MU_A.app[0].remoteDestAddress "\"Protection_B\""
config *.MU_A.app[0].remoteDestPort 2001
config *.MU_A.app[0].messageLength 140B
config *.MU_A.app[0].sendInterval 250us
config *.MU_A.app[0].currentBase 100A
config *.MU_A.app[0].noiseStd 1A
config *.MU_A.app[0].faultEnabled true
config *.MU_A.app[0].faultStart 2s
config *.MU_A.app[0].faultDuration 30ms
config *.MU_A.app[0].faultDelta 200A
config *.MU_A.app[0].dscp 56
config *.Protection_A.numApps 1
config *.Protection_A.app[0].typename src.apps.DifferentialProtectionApp
config *.Protection_A.app[0].localPort 2000
config *.Protection_A.app[0].remotePort 2001
config *.Protection_A.app[0].threshold 5A
config *.Protection_A.app[0].gooseDestLocal "\"IT_A\""
config *.Protection_A.app[0].gooseDestRemote "\"IT_B\""
config *.Protection_A.app[0].goosePort 3000
config *.Protection_A.app[0].gooseDscp 48
config *.Protection_A.app[0].recordStats true
config *.IT_A.numApps 1
config *.IT_A.app[0].typename UdpSink
config *.IT_A.app[0].localPort 3000
config *.IT_A.app[0].verbose true
config *.IT_B.numApps 1
config *.IT_B.app[0].typename UdpSink
config *.IT_B.app[0].localPort 3000
config *.IT_B.app[0].verbose true
config *.MU_B.numApps 1
config *.MU_B.app[0].typename src.apps.SvGeneratorApp
config *.MU_B.app[0].localDestAddress "\"Protection_B\""
config *.MU_B.app[0].localDestPort 2000
config *.MU_B.app[0].remoteDestAddress "\"Protection_A\""
config *.MU_B.app[0].remoteDestPort 2001
config *.MU_B.app[0].messageLength 140B
config *.MU_B.app[0].sendInterval 250us
config *.MU_B.app[0].currentBase 100A
config *.MU_B.app[0].noiseStd 1A
config *.MU_B.app[0].faultEnabled true
config *.MU_B.app[0].faultStart 2s
config *.MU_B.app[0].faultDuration 30ms
config *.MU_B.app[0].faultDelta 200A
config *.MU_B.app[0].dscp 56
config *.BusProtection_A.numApps 1
config *.BusProtection_A.app[0].typename UdpSink
config *.BusProtection_A.app[0].localPort 5000
config *.BusProtection_A.app[0].verbose true
config *.Protection_B.numApps 1
config *.Protection_B.app[0].typename src.apps.DifferentialProtectionApp
config *.Protection_B.app[0].localPort 2000
config *.Protection_B.app[0].remotePort 2001
config *.Protection_B.app[0].threshold 5A
config *.Protection_B.app[0].gooseDestLocal "\"IT_B\""
config *.Protection_B.app[0].gooseDestRemote "\"IT_A\""
config *.Protection_B.app[0].goosePort 3000
config *.Protection_B.app[0].gooseDscp 48
config *.Protection_B.app[0].recordStats true
config *.BusProtection_MU1_A.numApps 1
config *.BusProtection_MU1_A.app[0].typename UdpBasicApp
config *.BusProtection_MU1_A.app[0].localPort 5101
config *.BusProtection_MU1_A.app[0].destAddresses "\"BusProtection_A\""
config *.BusProtection_MU1_A.app[0].destPort 5000
config *.BusProtection_MU1_A.app[0].messageLength 140B
config *.BusProtection_MU1_A.app[0].sendInterval 250us
config *.BusProtection_MU1_A.app[0].startTime 1ms
config *.BusProtection_MU1_A.app[0].packetName "\"Bus_SV_1\""
config *.BusProtection_MU1_A.app[0].dscp 56
config *.BusProtection_MU1_A.app[0].verbose true
config *.BusProtection_MU2_A.numApps 1
config *.BusProtection_MU2_A.app[0].typename UdpBasicApp
config *.BusProtection_MU2_A.app[0].localPort 5102
config *.BusProtection_MU2_A.app[0].destAddresses "\"BusProtection_A\""
config *.BusProtection_MU2_A.app[0].destPort 5000
config *.BusProtection_MU2_A.app[0].messageLength 140B
config *.BusProtection_MU2_A.app[0].sendInterval 250us
config *.BusProtection_MU2_A.app[0].startTime 2ms
config *.BusProtection_MU2_A.app[0].packetName "\"Bus_SV_2\""
config *.BusProtection_MU2_A.app[0].dscp 56
config *.BusProtection_MU2_A.app[0].verbose true
config *.BusProtection_MU3_A.numApps 1
config *.BusProtection_MU3_A.app[0].typename UdpBasicApp
config *.BusProtection_MU3_A.app[0].localPort 5103
config *.BusProtection_MU3_A.app[0].destAddresses "\"BusProtection_A\""
config *.BusProtection_MU3_A.app[0].destPort 5000
config *.BusProtection_MU3_A.app[0].messageLength 140B
config *.BusProtection_MU3_A.app[0].sendInterval 250us
config *.BusProtection_MU3_A.app[0].startTime 3ms
config *.BusProtection_MU3_A.app[0].packetName "\"Bus_SV_3\""
config *.BusProtection_MU3_A.app[0].dscp 56
config *.BusProtection_MU3_A.app[0].verbose true
config *.BusProtection_B.numApps 1
config *.BusProtection_B.app[0].typename UdpSink
config *.BusProtection_B.app[0].localPort 5000
config *.BusProtection_B.app[0].verbose true
config *.BusProtection_MU1_B.numApps 1
config *.BusProtection_MU1_B.app[0].typename UdpBasicApp
config *.BusProtection_MU1_B.app[0].localPort 5101
config *.BusProtection_MU1_B.app[0].destAddresses "\"BusProtection_B\""
config *.BusProtection_MU1_B.app[0].destPort 5000
config *.BusProtection_MU1_B.app[0].messageLength 140B
config *.BusProtection_MU1_B.app[0].sendInterval 250us
config *.BusProtection_MU1_B.app[0].startTime 4ms
config *.BusProtection_MU1_B.app[0].packetName "\"Bus_SV_1\""
config *.BusProtection_MU1_B.app[0].dscp 56
config *.BusProtection_MU1_B.app[0].verbose true
config *.BusProtection_MU2_B.numApps 1
config *.BusProtection_MU2_B.app[0].typename UdpBasicApp
config *.BusProtection_MU2_B.app[0].localPort 5102
config *.BusProtection_MU2_B.app[0].destAddresses "\"BusProtection_B\""
config *.BusProtection_MU2_B.app[0].destPort 5000
config *.BusProtection_MU2_B.app[0].messageLength 140B
config *.BusProtection_MU2_B.app[0].sendInterval 250us
config *.BusProtection_MU2_B.app[0].startTime 5ms
config *.BusProtection_MU2_B.app[0].packetName "\"Bus_SV_2\""
config *.BusProtection_MU2_B.app[0].dscp 56
config *.BusProtection_MU2_B.app[0].verbose true
config *.BusProtection_MU3_B.numApps 1
config *.BusProtection_MU3_B.app[0].typename UdpBasicApp
config *.BusProtection_MU3_B.app[0].localPort 5103
config *.BusProtection_MU3_B.app[0].destAddresses "\"BusProtection_B\""
config *.BusProtection_MU3_B.app[0].destPort 5000
config *.BusProtection_MU3_B.app[0].messageLength 140B
config *.BusProtection_MU3_B.app[0].sendInterval 250us
config *.BusProtection_MU3_B.app[0].startTime 6ms
config *.BusProtection_MU3_B.app[0].packetName "\"Bus_SV_3\""
config *.BusProtection_MU3_B.app[0].dscp 56
config *.BusProtection_MU3_B.app[0].verbose true
config *.Camera*_A.numApps 2
config *.Camera*_A.app[0].typename UdpBasicApp
config *.Camera*_A.app[0].destAddresses "\"MonitoringCenter_A\""
config *.Camera*_A.app[0].destPort 6000
config *.Camera*_A.app[0].messageLength 1500B
config *.Camera*_A.app[0].sendInterval 33.33ms
config *.Camera*_A.app[0].startTime "uniform(0s, 1s)"
config *.Camera*_A.app[0].packetName "\"Video_Stream\""
config *.Camera*_A.app[0].dscp 0
config *.Camera*_A.app[0].verbose true
config *.Camera*_A.app[1].typename UdpBasicApp
config *.Camera*_A.app[1].localPort 6100
config *.Camera*_A.app[1].destAddresses "\"MonitoringCenter_Main\""
config *.Camera*_A.app[1].destPort 6000
config *.Camera*_A.app[1].messageLength 1500B
config *.Camera*_A.app[1].sendInterval 33.33ms
config *.Camera*_A.app[1].startTime "uniform(0s, 1s)"
config *.Camera*_A.app[1].packetName "\"Video_Stream_Main\""
config *.Camera*_A.app[1].dscp 0
config *.Camera*_A.app[1].verbose true
config *.Camera*_B.numApps 2
config *.Camera*_B.app[0].typename UdpBasicApp
config *.Camera*_B.app[0].destAddresses "\"MonitoringCenter_B\""
config *.Camera*_B.app[0].destPort 6000
config *.Camera*_B.app[0].messageLength 1500B
config *.Camera*_B.app[0].sendInterval 33.33ms
config *.Camera*_B.app[0].startTime "uniform(0s, 1s)"
config *.Camera*_B.app[0].packetName "\"Video_Stream\""
config *.Camera*_B.app[0].dscp 0
config *.Camera*_B.app[0].verbose true
config *.Camera*_B.app[1].typename UdpBasicApp
config *.Camera*_B.app[1].localPort 6100
config *.Camera*_B.app[1].destAddresses "\"MonitoringCenter_Main\""
config *.Camera*_B.app[1].destPort 6000
config *.Camera*_B.app[1].messageLength 1500B
config *.Camera*_B.app[1].sendInterval 33.33ms
config *.Camera*_B.app[1].startTime "uniform(0s, 1s)"
config *.Camera*_B.app[1].packetName "\"Video_Stream_Main\""
config *.Camera*_B.app[1].dscp 0
config *.Camera*_B.app[1].verbose true
config *.MonitoringCenter_Main.numApps 2
config *.MonitoringCenter_Main.app[0].typename UdpSink
config *.MonitoringCenter_Main.app[0].localPort 6000
config *.MonitoringCenter_Main.app[0].verbose true
config *.MonitoringCenter_Main.app[1].typename UdpSink
config *.MonitoringCenter_Main.app[1].localPort 9002
config *.MonitoringCenter_Main.app[1].verbose true
config *.VoIP*_A.numApps 1
config *.VoIP*_A.app[0].typename UdpBasicApp
config *.VoIP*_A.app[0].localPort 7001
config *.VoIP*_A.app[0].destAddresses "\"MonitoringCenter_A\""
config *.VoIP*_A.app[0].destPort 7100
config *.VoIP*_A.app[0].messageLength 200B
config *.VoIP*_A.app[0].sendInterval 20ms
config *.VoIP*_A.app[0].startTime "uniform(0s, 200ms)"
config *.VoIP*_A.app[0].packetName "\"VoIP_Stream\""
config *.VoIP*_A.app[0].dscp 0
config *.VoIP*_A.app[0].verbose true
config *.VoIP*_B.numApps 1
config *.VoIP*_B.app[0].typename UdpBasicApp
config *.VoIP*_B.app[0].localPort 8001
config *.VoIP*_B.app[0].destAddresses "\"MonitoringCenter_B\""
config *.VoIP*_B.app[0].destPort 7100
config *.VoIP*_B.app[0].messageLength 200B
config *.VoIP*_B.app[0].sendInterval 20ms
config *.VoIP*_B.app[0].startTime "uniform(0s, 200ms)"
config *.VoIP*_B.app[0].packetName "\"VoIP_Stream\""
config *.VoIP*_B.app[0].dscp 0
config *.VoIP*_B.app[0].verbose true
config *.VoIP2_B.app[0].destPort 7100
config *.VoIP2_B.app[0].messageLength 200B
config *.VoIP2_B.app[0].sendInterval 20ms
config *.VoIP2_B.app[0].startTime "uniform(0s, 200ms)"
config *.VoIP2_B.app[0].packetName "\"VoIP_Stream\""
config *.VoIP2_B.app[0].dscp 0
config *.VoIP2_B.app[0].verbose true
config *.MonitoringCenter_A.app[0].typename UdpSink
config *.MonitoringCenter_A.app[0].localPort 6000
config *.MonitoringCenter_A.app[0].verbose true
config *.MonitoringCenter_A.app[1].typename UdpBasicApp
config *.MonitoringCenter_A.app[1].localPort 9001
config *.MonitoringCenter_A.app[1].destAddresses "\"MonitoringCenter_Main\""
config *.MonitoringCenter_A.app[1].destPort 9002
config *.MonitoringCenter_A.app[1].messageLength "int(normal(1500B, 500B))"
config *.MonitoringCenter_A.app[1].sendInterval exponential(0.1s)
config *.MonitoringCenter_A.app[1].startTime 500ms
config *.MonitoringCenter_A.app[1].packetName "\"OM_Data_Burst_A\""
config *.MonitoringCenter_A.app[1].dscp 0
config *.MonitoringCenter_A.app[1].verbose true
config *.MonitoringCenter_A.app[2].typename UdpSink
config *.MonitoringCenter_A.app[2].localPort 9004
config *.MonitoringCenter_A.app[2].verbose true
config *.MonitoringCenter_A.app[3].typename UdpSink
config *.MonitoringCenter_A.app[3].localPort 7100
config *.MonitoringCenter_A.app[3].verbose true
config *.MonitoringCenter_B.numApps 4
config *.MonitoringCenter_B.app[0].typename UdpSink
config *.MonitoringCenter_B.app[0].localPort 6000
config *.MonitoringCenter_B.app[0].verbose true
config *.MonitoringCenter_B.app[1].typename UdpSink
config *.MonitoringCenter_B.app[1].localPort 9002
config *.MonitoringCenter_B.app[1].verbose true
config *.MonitoringCenter_B.app[2].typename UdpBasicApp
config *.MonitoringCenter_B.app[2].localPort 9003
config *.MonitoringCenter_B.app[2].destAddresses "\"MonitoringCenter_Main\""
config *.MonitoringCenter_B.app[2].destPort 9004
config *.MonitoringCenter_B.app[2].messageLength "int(normal(1500B, 500B))"
config *.MonitoringCenter_B.app[2].sendInterval exponential(0.1s)
config *.MonitoringCenter_B.app[2].startTime 600ms
config *.MonitoringCenter_B.app[2].packetName "\"OM_Data_Burst_B\""
config *.MonitoringCenter_B.app[2].dscp 0
config *.MonitoringCenter_B.app[2].verbose true
config *.MonitoringCenter_B.app[3].typename UdpSink
config *.MonitoringCenter_B.app[3].localPort 7100
config *.MonitoringCenter_B.app[3].verbose true
config **.app[*].source.packetSentSignal true
config **.app[*].sink.packetReceivedSignal true
config **.app[*].sink.endToEndDelayStatistic.record true
config **.app[*].sink.delayHistogram.record true
config **.app[*].sink.numReceivedStatistic.record true
config **.app[*].sink.throughputStatistic.record true
config **.app[*].sink.jitterStatistic.record true
config **.app[*].sink.jitterHistogram.record true
config *.VoIP*_A.app[*].sink.delayThreshold 150ms
config *.VoIP*_A.app[*].sink.jitterThreshold 30ms
config *.VoIP*_B.app[*].sink.delayThreshold 150ms
config *.VoIP*_B.app[*].sink.jitterThreshold 30ms
config *.MU_A.app[0].sink.delayThreshold 30ms
config *.MU_A.app[0].sink.jitterThreshold 250us
config *.BusProtection_MU*_A.app[*].sink.delayThreshold 30ms
config *.BusProtection_MU*_A.app[*].sink.jitterThreshold 250us
config *.*_A.displayString "\"i=abstract/pc\""
config *.*_B.displayString "\"i=abstract/pc\""
config *.borderGateway*.displayString "\"i=misc/router\""
config *.otnDevice.displayString "\"i=misc/router_vs\""
config *.MU_A.displayString "\"i=block/switch,green\""
config *.Protection_A.displayString "\"i=block/computer,red\""
config *.IT_A.displayString "\"i=block/plug,blue\""
config *.Protection_B.displayString "\"i=block/computer,red\""
config *.MonitoringCenter_A.displayString "\"i=block/server,blue\""
config *.MonitoringCenter_B.displayString "\"i=block/server,blue\""
config *.MonitoringCenter_Main.displayString "\"i=block/server,cyan\""
config *.BusProtection_A.displayString "\"i=block/computer,orange\""
config *.BusProtection_B.displayString "\"i=block/computer,orange\""
config *.BusProtection_MU*_A.displayString "\"i=block/switch,yellow\""
config *.BusProtection_MU*_B.displayString "\"i=block/switch,yellow\""
config *.Camera*_A.displayString "\"i=device/camera,gray\""
config *.Camera*_B.displayString "\"i=device/camera,gray\""
config *.VoIP1_A.displayString "\"i=device/phone,gray\""
config *.VoIP2_A.displayString "\"i=device/phone,gray\""
config *.VoIP1_B.displayString "\"i=device/phone,gray\""
config *.VoIP2_B.displayString "\"i=device/phone,gray\""
config **.channel.displayString "\"ls=black,1\""

vector 0 SmartSubstationTopology.MU_A.udp passedUpPk:vector(count) ETV
attr interpolationmode none
attr recordingmode vector(count)
attr source packetSentToUpper
attr title "packets passed up, count"
vector 1 SmartSubstationTopology.MU_A.udp droppedPkWrongPort:vector(count) ETV
attr interpolationmode none
attr recordingmode vector(count)
attr source packetDropReasonIsNoPortFound(packetDropped)
attr title "packets dropped (wrong port), count"
vector 2 SmartSubstationTopology.MU_A.udp droppedPkBadChecksum:vector(count) ETV
attr interpolationmode none
attr recordingmode vector(count)
attr source packetDropReasonIsIncorrectlyReceived(packetDropped)
attr title "packets dropped (checksum error), count"
vector 3 SmartSubstationTopology.Protection_A.udp passedUpPk:vector(count) ETV
attr interpolationmode none
attr recordingmode vector(count)
attr source packetSentToUpper
attr title "packets passed up, count"
vector 4 SmartSubstationTopology.Protection_A.udp droppedPkWrongPort:vector(count) ETV
attr interpolationmode none
attr recordingmode vector(count)
attr source packetDropReasonIsNoPortFound(packetDropped)
attr title "packets dropped (wrong port), count"
vector 5 SmartSubstationTopology.Protection_A.udp droppedPkBadChecksum:vector(count) ETV
attr interpolationmode none
attr recordingmode vector(count)
attr source packetDropReasonIsIncorrectlyReceived(packetDropped)
attr title "packets dropped (checksum error), count"
vector 6 SmartSubstationTopology.IT_A.udp passedUpPk:vector(count) ETV
attr interpolationmode none
attr recordingmode vector(count)
attr source packetSentToUpper
attr title "packets passed up, count"
vector 7 SmartSubstationTopology.IT_A.udp droppedPkWrongPort:vector(count) ETV
attr interpolationmode none
attr recordingmode vector(count)
attr source packetDropReasonIsNoPortFound(packetDropped)
attr title "packets dropped (wrong port), count"
vector 8 SmartSubstationTopology.IT_A.udp droppedPkBadChecksum:vector(count) ETV
attr interpolationmode none
attr recordingmode vector(count)
attr source packetDropReasonIsIncorrectlyReceived(packetDropped)
attr title "packets dropped (checksum error), count"
vector 9 SmartSubstationTopology.BusProtection_MU1_A.udp passedUpPk:vector(count) ETV
attr interpolationmode none
attr recordingmode vector(count)
attr source packetSentToUpper
attr title "packets passed up, count"
vector 10 SmartSubstationTopology.BusProtection_MU1_A.udp droppedPkWrongPort:vector(count) ETV
attr interpolationmode none
attr recordingmode vector(count)
attr source packetDropReasonIsNoPortFound(packetDropped)
attr title "packets dropped (wrong port), count"
vector 11 SmartSubstationTopology.BusProtection_MU1_A.udp droppedPkBadChecksum:vector(count) ETV
attr interpolationmode none
attr recordingmode vector(count)
attr source packetDropReasonIsIncorrectlyReceived(packetDropped)
attr title "packets dropped (checksum error), count"
vector 12 SmartSubstationTopology.BusProtection_MU2_A.udp passedUpPk:vector(count) ETV
attr interpolationmode none
attr recordingmode vector(count)
attr source packetSentToUpper
attr title "packets passed up, count"
vector 13 SmartSubstationTopology.BusProtection_MU2_A.udp droppedPkWrongPort:vector(count) ETV
attr interpolationmode none
attr recordingmode vector(count)
attr source packetDropReasonIsNoPortFound(packetDropped)
attr title "packets dropped (wrong port), count"
vector 14 SmartSubstationTopology.BusProtection_MU2_A.udp droppedPkBadChecksum:vector(count) ETV
attr interpolationmode none
attr recordingmode vector(count)
attr source packetDropReasonIsIncorrectlyReceived(packetDropped)
attr title "packets dropped (checksum error), count"
vector 15 SmartSubstationTopology.BusProtection_MU3_A.udp passedUpPk:vector(count) ETV
attr interpolationmode none
attr recordingmode vector(count)
attr source packetSentToUpper
attr title "packets passed up, count"
vector 16 SmartSubstationTopology.BusProtection_MU3_A.udp droppedPkWrongPort:vector(count) ETV
attr interpolationmode none
attr recordingmode vector(count)
attr source packetDropReasonIsNoPortFound(packetDropped)
attr title "packets dropped (wrong port), count"
vector 17 SmartSubstationTopology.BusProtection_MU3_A.udp droppedPkBadChecksum:vector(count) ETV
attr interpolationmode none
attr recordingmode vector(count)
attr source packetDropReasonIsIncorrectlyReceived(packetDropped)
attr title "packets dropped (checksum error), count"
vector 18 SmartSubstationTopology.BusProtection_A.udp passedUpPk:vector(count) ETV
attr interpolationmode none
attr recordingmode vector(count)
attr source packetSentToUpper
attr title "packets passed up, count"
vector 19 SmartSubstationTopology.BusProtection_A.udp droppedPkWrongPort:vector(count) ETV
attr interpolationmode none
attr recordingmode vector(count)
attr source packetDropReasonIsNoPortFound(packetDropped)
attr title "packets dropped (wrong port), count"
vector 20 SmartSubstationTopology.BusProtection_A.udp droppedPkBadChecksum:vector(count) ETV
attr interpolationmode none
attr recordingmode vector(count)
attr source packetDropReasonIsIncorrectlyReceived(packetDropped)
attr title "packets dropped (checksum error), count"
vector 21 SmartSubstationTopology.Camera1_A.udp passedUpPk:vector(count) ETV
attr interpolationmode none
attr recordingmode vector(count)
attr source packetSentToUpper
attr title "packets passed up, count"
vector 22 SmartSubstationTopology.Camera1_A.udp droppedPkWrongPort:vector(count) ETV
attr interpolationmode none
attr recordingmode vector(count)
attr source packetDropReasonIsNoPortFound(packetDropped)
attr title "packets dropped (wrong port), count"
vector 23 SmartSubstationTopology.Camera1_A.udp droppedPkBadChecksum:vector(count) ETV
attr interpolationmode none
attr recordingmode vector(count)
attr source packetDropReasonIsIncorrectlyReceived(packetDropped)
attr title "packets dropped (checksum error), count"
vector 24 SmartSubstationTopology.Camera2_A.udp passedUpPk:vector(count) ETV
attr interpolationmode none
attr recordingmode vector(count)
attr source packetSentToUpper
attr title "packets passed up, count"
vector 25 SmartSubstationTopology.Camera2_A.udp droppedPkWrongPort:vector(count) ETV
attr interpolationmode none
attr recordingmode vector(count)
attr source packetDropReasonIsNoPortFound(packetDropped)
attr title "packets dropped (wrong port), count"
vector 26 SmartSubstationTopology.Camera2_A.udp droppedPkBadChecksum:vector(count) ETV
attr interpolationmode none
attr recordingmode vector(count)
attr source packetDropReasonIsIncorrectlyReceived(packetDropped)
attr title "packets dropped (checksum error), count"
vector 27 SmartSubstationTopology.Camera3_A.udp passedUpPk:vector(count) ETV
attr interpolationmode none
attr recordingmode vector(count)
attr source packetSentToUpper
attr title "packets passed up, count"
vector 28 SmartSubstationTopology.Camera3_A.udp droppedPkWrongPort:vector(count) ETV
attr interpolationmode none
attr recordingmode vector(count)
attr source packetDropReasonIsNoPortFound(packetDropped)
attr title "packets dropped (wrong port), count"
vector 29 SmartSubstationTopology.Camera3_A.udp droppedPkBadChecksum:vector(count) ETV
attr interpolationmode none
attr recordingmode vector(count)
attr source packetDropReasonIsIncorrectlyReceived(packetDropped)
attr title "packets dropped (checksum error), count"
vector 30 SmartSubstationTopology.Camera4_A.udp passedUpPk:vector(count) ETV
attr interpolationmode none
attr recordingmode vector(count)
attr source packetSentToUpper
attr title "packets passed up, count"
vector 31 SmartSubstationTopology.Camera4_A.udp droppedPkWrongPort:vector(count) ETV
attr interpolationmode none
attr recordingmode vector(count)
attr source packetDropReasonIsNoPortFound(packetDropped)
attr title "packets dropped (wrong port), count"
vector 32 SmartSubstationTopology.Camera4_A.udp droppedPkBadChecksum:vector(count) ETV
attr interpolationmode none
attr recordingmode vector(count)
attr source packetDropReasonIsIncorrectlyReceived(packetDropped)
attr title "packets dropped (checksum error), count"
vector 33 SmartSubstationTopology.Camera5_A.udp passedUpPk:vector(count) ETV
attr interpolationmode none
attr recordingmode vector(count)
attr source packetSentToUpper
attr title "packets passed up, count"
vector 34 SmartSubstationTopology.Camera5_A.udp droppedPkWrongPort:vector(count) ETV
attr interpolationmode none
attr recordingmode vector(count)
attr source packetDropReasonIsNoPortFound(packetDropped)
attr title "packets dropped (wrong port), count"
vector 35 SmartSubstationTopology.Camera5_A.udp droppedPkBadChecksum:vector(count) ETV
attr interpolationmode none
attr recordingmode vector(count)
attr source packetDropReasonIsIncorrectlyReceived(packetDropped)
attr title "packets dropped (checksum error), count"
vector 36 SmartSubstationTopology.Camera6_A.udp passedUpPk:vector(count) ETV
attr interpolationmode none
attr recordingmode vector(count)
attr source packetSentToUpper
attr title "packets passed up, count"
vector 37 SmartSubstationTopology.Camera6_A.udp droppedPkWrongPort:vector(count) ETV
attr interpolationmode none
attr recordingmode vector(count)
attr source packetDropReasonIsNoPortFound(packetDropped)
attr title "packets dropped (wrong port), count"
vector 38 SmartSubstationTopology.Camera6_A.udp droppedPkBadChecksum:vector(count) ETV
attr interpolationmode none
attr recordingmode vector(count)
attr source packetDropReasonIsIncorrectlyReceived(packetDropped)
attr title "packets dropped (checksum error), count"
vector 39 SmartSubstationTopology.Camera7_A.udp passedUpPk:vector(count) ETV
attr interpolationmode none
attr recordingmode vector(count)
attr source packetSentToUpper
attr title "packets passed up, count"
vector 40 SmartSubstationTopology.Camera7_A.udp droppedPkWrongPort:vector(count) ETV
attr interpolationmode none
attr recordingmode vector(count)
attr source packetDropReasonIsNoPortFound(packetDropped)
attr title "packets dropped (wrong port), count"
vector 41 SmartSubstationTopology.Camera7_A.udp droppedPkBadChecksum:vector(count) ETV
attr interpolationmode none
attr recordingmode vector(count)
attr source packetDropReasonIsIncorrectlyReceived(packetDropped)
attr title "packets dropped (checksum error), count"
vector 42 SmartSubstationTopology.Camera8_A.udp passedUpPk:vector(count) ETV
attr interpolationmode none
attr recordingmode vector(count)
attr source packetSentToUpper
attr title "packets passed up, count"
vector 43 SmartSubstationTopology.Camera8_A.udp droppedPkWrongPort:vector(count) ETV
attr interpolationmode none
attr recordingmode vector(count)
attr source packetDropReasonIsNoPortFound(packetDropped)
attr title "packets dropped (wrong port), count"
vector 44 SmartSubstationTopology.Camera8_A.udp droppedPkBadChecksum:vector(count) ETV
attr interpolationmode none
attr recordingmode vector(count)
attr source packetDropReasonIsIncorrectlyReceived(packetDropped)
attr title "packets dropped (checksum error), count"
vector 45 SmartSubstationTopology.Camera9_A.udp passedUpPk:vector(count) ETV
attr interpolationmode none
attr recordingmode vector(count)
attr source packetSentToUpper
attr title "packets passed up, count"
vector 46 SmartSubstationTopology.Camera9_A.udp droppedPkWrongPort:vector(count) ETV
attr interpolationmode none
attr recordingmode vector(count)
attr source packetDropReasonIsNoPortFound(packetDropped)
attr title "packets dropped (wrong port), count"
vector 47 SmartSubstationTopology.Camera9_A.udp droppedPkBadChecksum:vector(count) ETV
attr interpolationmode none
attr recordingmode vector(count)
attr source packetDropReasonIsIncorrectlyReceived(packetDropped)
attr title "packets dropped (checksum error), count"
vector 48 SmartSubstationTopology.Camera10_A.udp passedUpPk:vector(count) ETV
attr interpolationmode none
attr recordingmode vector(count)
attr source packetSentToUpper
attr title "packets passed up, count"
vector 49 SmartSubstationTopology.Camera10_A.udp droppedPkWrongPort:vector(count) ETV
attr interpolationmode none
attr recordingmode vector(count)
attr source packetDropReasonIsNoPortFound(packetDropped)
attr title "packets dropped (wrong port), count"
vector 50 SmartSubstationTopology.Camera10_A.udp droppedPkBadChecksum:vector(count) ETV
attr interpolationmode none
attr recordingmode vector(count)
attr source packetDropReasonIsIncorrectlyReceived(packetDropped)
attr title "packets dropped (checksum error), count"
vector 51 SmartSubstationTopology.VoIP1_A.udp passedUpPk:vector(count) ETV
attr interpolationmode none
attr recordingmode vector(count)
attr source packetSentToUpper
attr title "packets passed up, count"
vector 52 SmartSubstationTopology.VoIP1_A.udp droppedPkWrongPort:vector(count) ETV
attr interpolationmode none
attr recordingmode vector(count)
attr source packetDropReasonIsNoPortFound(packetDropped)
attr title "packets dropped (wrong port), count"
vector 53 SmartSubstationTopology.VoIP1_A.udp droppedPkBadChecksum:vector(count) ETV
attr interpolationmode none
attr recordingmode vector(count)
attr source packetDropReasonIsIncorrectlyReceived(packetDropped)
attr title "packets dropped (checksum error), count"
vector 54 SmartSubstationTopology.VoIP2_A.udp passedUpPk:vector(count) ETV
attr interpolationmode none
attr recordingmode vector(count)
attr source packetSentToUpper
attr title "packets passed up, count"
vector 55 SmartSubstationTopology.VoIP2_A.udp droppedPkWrongPort:vector(count) ETV
attr interpolationmode none
attr recordingmode vector(count)
attr source packetDropReasonIsNoPortFound(packetDropped)
attr title "packets dropped (wrong port), count"
vector 56 SmartSubstationTopology.VoIP2_A.udp droppedPkBadChecksum:vector(count) ETV
attr interpolationmode none
attr recordingmode vector(count)
attr source packetDropReasonIsIncorrectlyReceived(packetDropped)
attr title "packets dropped (checksum error), count"
vector 57 SmartSubstationTopology.MonitoringCenter_A.udp passedUpPk:vector(count) ETV
attr interpolationmode none
attr recordingmode vector(count)
attr source packetSentToUpper
attr title "packets passed up, count"
vector 58 SmartSubstationTopology.MonitoringCenter_A.udp droppedPkWrongPort:vector(count) ETV
attr interpolationmode none
attr recordingmode vector(count)
attr source packetDropReasonIsNoPortFound(packetDropped)
attr title "packets dropped (wrong port), count"
vector 59 SmartSubstationTopology.MonitoringCenter_A.udp droppedPkBadChecksum:vector(count) ETV
attr interpolationmode none
attr recordingmode vector(count)
attr source packetDropReasonIsIncorrectlyReceived(packetDropped)
attr title "packets dropped (checksum error), count"
vector 60 SmartSubstationTopology.MU_B.udp passedUpPk:vector(count) ETV
attr interpolationmode none
attr recordingmode vector(count)
attr source packetSentToUpper
attr title "packets passed up, count"
vector 61 SmartSubstationTopology.MU_B.udp droppedPkWrongPort:vector(count) ETV
attr interpolationmode none
attr recordingmode vector(count)
attr source packetDropReasonIsNoPortFound(packetDropped)
attr title "packets dropped (wrong port), count"
vector 62 SmartSubstationTopology.MU_B.udp droppedPkBadChecksum:vector(count) ETV
attr interpolationmode none
attr recordingmode vector(count)
attr source packetDropReasonIsIncorrectlyReceived(packetDropped)
attr title "packets dropped (checksum error), count"
vector 63 SmartSubstationTopology.Protection_B.udp passedUpPk:vector(count) ETV
attr interpolationmode none
attr recordingmode vector(count)
attr source packetSentToUpper
attr title "packets passed up, count"
vector 64 SmartSubstationTopology.Protection_B.udp droppedPkWrongPort:vector(count) ETV
attr interpolationmode none
attr recordingmode vector(count)
attr source packetDropReasonIsNoPortFound(packetDropped)
attr title "packets dropped (wrong port), count"
vector 65 SmartSubstationTopology.Protection_B.udp droppedPkBadChecksum:vector(count) ETV
attr interpolationmode none
attr recordingmode vector(count)
attr source packetDropReasonIsIncorrectlyReceived(packetDropped)
attr title "packets dropped (checksum error), count"
vector 66 SmartSubstationTopology.IT_B.udp passedUpPk:vector(count) ETV
attr interpolationmode none
attr recordingmode vector(count)
attr source packetSentToUpper
attr title "packets passed up, count"
vector 67 SmartSubstationTopology.IT_B.udp droppedPkWrongPort:vector(count) ETV
attr interpolationmode none
attr recordingmode vector(count)
attr source packetDropReasonIsNoPortFound(packetDropped)
attr title "packets dropped (wrong port), count"
vector 68 SmartSubstationTopology.IT_B.udp droppedPkBadChecksum:vector(count) ETV
attr interpolationmode none
attr recordingmode vector(count)
attr source packetDropReasonIsIncorrectlyReceived(packetDropped)
attr title "packets dropped (checksum error), count"
vector 69 SmartSubstationTopology.BusProtection_MU1_B.udp passedUpPk:vector(count) ETV
attr interpolationmode none
attr recordingmode vector(count)
attr source packetSentToUpper
attr title "packets passed up, count"
vector 70 SmartSubstationTopology.BusProtection_MU1_B.udp droppedPkWrongPort:vector(count) ETV
attr interpolationmode none
attr recordingmode vector(count)
attr source packetDropReasonIsNoPortFound(packetDropped)
attr title "packets dropped (wrong port), count"
vector 71 SmartSubstationTopology.BusProtection_MU1_B.udp droppedPkBadChecksum:vector(count) ETV
attr interpolationmode none
attr recordingmode vector(count)
attr source packetDropReasonIsIncorrectlyReceived(packetDropped)
attr title "packets dropped (checksum error), count"
vector 72 SmartSubstationTopology.BusProtection_MU2_B.udp passedUpPk:vector(count) ETV
attr interpolationmode none
attr recordingmode vector(count)
attr source packetSentToUpper
attr title "packets passed up, count"
vector 73 SmartSubstationTopology.BusProtection_MU2_B.udp droppedPkWrongPort:vector(count) ETV
attr interpolationmode none
attr recordingmode vector(count)
attr source packetDropReasonIsNoPortFound(packetDropped)
attr title "packets dropped (wrong port), count"
vector 74 SmartSubstationTopology.BusProtection_MU2_B.udp droppedPkBadChecksum:vector(count) ETV
attr interpolationmode none
attr recordingmode vector(count)
attr source packetDropReasonIsIncorrectlyReceived(packetDropped)
attr title "packets dropped (checksum error), count"
vector 75 SmartSubstationTopology.BusProtection_MU3_B.udp passedUpPk:vector(count) ETV
attr interpolationmode none
attr recordingmode vector(count)
attr source packetSentToUpper
attr title "packets passed up, count"
vector 76 SmartSubstationTopology.BusProtection_MU3_B.udp droppedPkWrongPort:vector(count) ETV
attr interpolationmode none
attr recordingmode vector(count)
attr source packetDropReasonIsNoPortFound(packetDropped)
attr title "packets dropped (wrong port), count"
vector 77 SmartSubstationTopology.BusProtection_MU3_B.udp droppedPkBadChecksum:vector(count) ETV
attr interpolationmode none
attr recordingmode vector(count)
attr source packetDropReasonIsIncorrectlyReceived(packetDropped)
attr title "packets dropped (checksum error), count"
vector 78 SmartSubstationTopology.BusProtection_B.udp passedUpPk:vector(count) ETV
attr interpolationmode none
attr recordingmode vector(count)
attr source packetSentToUpper
attr title "packets passed up, count"
vector 79 SmartSubstationTopology.BusProtection_B.udp droppedPkWrongPort:vector(count) ETV
attr interpolationmode none
attr recordingmode vector(count)
attr source packetDropReasonIsNoPortFound(packetDropped)
attr title "packets dropped (wrong port), count"
vector 80 SmartSubstationTopology.BusProtection_B.udp droppedPkBadChecksum:vector(count) ETV
attr interpolationmode none
attr recordingmode vector(count)
attr source packetDropReasonIsIncorrectlyReceived(packetDropped)
attr title "packets dropped (checksum error), count"
vector 81 SmartSubstationTopology.Camera1_B.udp passedUpPk:vector(count) ETV
attr interpolationmode none
attr recordingmode vector(count)
attr source packetSentToUpper
attr title "packets passed up, count"
vector 82 SmartSubstationTopology.Camera1_B.udp droppedPkWrongPort:vector(count) ETV
attr interpolationmode none
attr recordingmode vector(count)
attr source packetDropReasonIsNoPortFound(packetDropped)
attr title "packets dropped (wrong port), count"
vector 83 SmartSubstationTopology.Camera1_B.udp droppedPkBadChecksum:vector(count) ETV
attr interpolationmode none
attr recordingmode vector(count)
attr source packetDropReasonIsIncorrectlyReceived(packetDropped)
attr title "packets dropped (checksum error), count"
vector 84 SmartSubstationTopology.Camera2_B.udp passedUpPk:vector(count) ETV
attr interpolationmode none
attr recordingmode vector(count)
attr source packetSentToUpper
attr title "packets passed up, count"
vector 85 SmartSubstationTopology.Camera2_B.udp droppedPkWrongPort:vector(count) ETV
attr interpolationmode none
attr recordingmode vector(count)
attr source packetDropReasonIsNoPortFound(packetDropped)
attr title "packets dropped (wrong port), count"
vector 86 SmartSubstationTopology.Camera2_B.udp droppedPkBadChecksum:vector(count) ETV
attr interpolationmode none
attr recordingmode vector(count)
attr source packetDropReasonIsIncorrectlyReceived(packetDropped)
attr title "packets dropped (checksum error), count"
vector 87 SmartSubstationTopology.Camera3_B.udp passedUpPk:vector(count) ETV
attr interpolationmode none
attr recordingmode vector(count)
attr source packetSentToUpper
attr title "packets passed up, count"
vector 88 SmartSubstationTopology.Camera3_B.udp droppedPkWrongPort:vector(count) ETV
attr interpolationmode none
attr recordingmode vector(count)
attr source packetDropReasonIsNoPortFound(packetDropped)
attr title "packets dropped (wrong port), count"
vector 89 SmartSubstationTopology.Camera3_B.udp droppedPkBadChecksum:vector(count) ETV
attr interpolationmode none
attr recordingmode vector(count)
attr source packetDropReasonIsIncorrectlyReceived(packetDropped)
attr title "packets dropped (checksum error), count"
vector 90 SmartSubstationTopology.Camera4_B.udp passedUpPk:vector(count) ETV
attr interpolationmode none
attr recordingmode vector(count)
attr source packetSentToUpper
attr title "packets passed up, count"
vector 91 SmartSubstationTopology.Camera4_B.udp droppedPkWrongPort:vector(count) ETV
attr interpolationmode none
attr recordingmode vector(count)
attr source packetDropReasonIsNoPortFound(packetDropped)
attr title "packets dropped (wrong port), count"
vector 92 SmartSubstationTopology.Camera4_B.udp droppedPkBadChecksum:vector(count) ETV
attr interpolationmode none
attr recordingmode vector(count)
attr source packetDropReasonIsIncorrectlyReceived(packetDropped)
attr title "packets dropped (checksum error), count"
vector 93 SmartSubstationTopology.Camera5_B.udp passedUpPk:vector(count) ETV
attr interpolationmode none
attr recordingmode vector(count)
attr source packetSentToUpper
attr title "packets passed up, count"
vector 94 SmartSubstationTopology.Camera5_B.udp droppedPkWrongPort:vector(count) ETV
attr interpolationmode none
attr recordingmode vector(count)
attr source packetDropReasonIsNoPortFound(packetDropped)
attr title "packets dropped (wrong port), count"
vector 95 SmartSubstationTopology.Camera5_B.udp droppedPkBadChecksum:vector(count) ETV
attr interpolationmode none
attr recordingmode vector(count)
attr source packetDropReasonIsIncorrectlyReceived(packetDropped)
attr title "packets dropped (checksum error), count"
vector 96 SmartSubstationTopology.Camera6_B.udp passedUpPk:vector(count) ETV
attr interpolationmode none
attr recordingmode vector(count)
attr source packetSentToUpper
attr title "packets passed up, count"
vector 97 SmartSubstationTopology.Camera6_B.udp droppedPkWrongPort:vector(count) ETV
attr interpolationmode none
attr recordingmode vector(count)
attr source packetDropReasonIsNoPortFound(packetDropped)
attr title "packets dropped (wrong port), count"
vector 98 SmartSubstationTopology.Camera6_B.udp droppedPkBadChecksum:vector(count) ETV
attr interpolationmode none
attr recordingmode vector(count)
attr source packetDropReasonIsIncorrectlyReceived(packetDropped)
attr title "packets dropped (checksum error), count"
vector 99 SmartSubstationTopology.Camera7_B.udp passedUpPk:vector(count) ETV
attr interpolationmode none
attr recordingmode vector(count)
attr source packetSentToUpper
attr title "packets passed up, count"
vector 100 SmartSubstationTopology.Camera7_B.udp droppedPkWrongPort:vector(count) ETV
attr interpolationmode none
attr recordingmode vector(count)
attr source packetDropReasonIsNoPortFound(packetDropped)
attr title "packets dropped (wrong port), count"
vector 101 SmartSubstationTopology.Camera7_B.udp droppedPkBadChecksum:vector(count) ETV
attr interpolationmode none
attr recordingmode vector(count)
attr source packetDropReasonIsIncorrectlyReceived(packetDropped)
attr title "packets dropped (checksum error), count"
vector 102 SmartSubstationTopology.Camera8_B.udp passedUpPk:vector(count) ETV
attr interpolationmode none
attr recordingmode vector(count)
attr source packetSentToUpper
attr title "packets passed up, count"
vector 103 SmartSubstationTopology.Camera8_B.udp droppedPkWrongPort:vector(count) ETV
attr interpolationmode none
attr recordingmode vector(count)
attr source packetDropReasonIsNoPortFound(packetDropped)
attr title "packets dropped (wrong port), count"
vector 104 SmartSubstationTopology.Camera8_B.udp droppedPkBadChecksum:vector(count) ETV
attr interpolationmode none
attr recordingmode vector(count)
attr source packetDropReasonIsIncorrectlyReceived(packetDropped)
attr title "packets dropped (checksum error), count"
vector 105 SmartSubstationTopology.Camera9_B.udp passedUpPk:vector(count) ETV
attr interpolationmode none
attr recordingmode vector(count)
attr source packetSentToUpper
attr title "packets passed up, count"
vector 106 SmartSubstationTopology.Camera9_B.udp droppedPkWrongPort:vector(count) ETV
attr interpolationmode none
attr recordingmode vector(count)
attr source packetDropReasonIsNoPortFound(packetDropped)
attr title "packets dropped (wrong port), count"
vector 107 SmartSubstationTopology.Camera9_B.udp droppedPkBadChecksum:vector(count) ETV
attr interpolationmode none
attr recordingmode vector(count)
attr source packetDropReasonIsIncorrectlyReceived(packetDropped)
attr title "packets dropped (checksum error), count"
vector 108 SmartSubstationTopology.Camera10_B.udp passedUpPk:vector(count) ETV
attr interpolationmode none
attr recordingmode vector(count)
attr source packetSentToUpper
attr title "packets passed up, count"
vector 109 SmartSubstationTopology.Camera10_B.udp droppedPkWrongPort:vector(count) ETV
attr interpolationmode none
attr recordingmode vector(count)
attr source packetDropReasonIsNoPortFound(packetDropped)
attr title "packets dropped (wrong port), count"
vector 110 SmartSubstationTopology.Camera10_B.udp droppedPkBadChecksum:vector(count) ETV
attr interpolationmode none
attr recordingmode vector(count)
attr source packetDropReasonIsIncorrectlyReceived(packetDropped)
attr title "packets dropped (checksum error), count"
vector 111 SmartSubstationTopology.VoIP1_B.udp passedUpPk:vector(count) ETV
attr interpolationmode none
attr recordingmode vector(count)
attr source packetSentToUpper
attr title "packets passed up, count"
vector 112 SmartSubstationTopology.VoIP1_B.udp droppedPkWrongPort:vector(count) ETV
attr interpolationmode none
attr recordingmode vector(count)
attr source packetDropReasonIsNoPortFound(packetDropped)
attr title "packets dropped (wrong port), count"
vector 113 SmartSubstationTopology.VoIP1_B.udp droppedPkBadChecksum:vector(count) ETV
attr interpolationmode none
attr recordingmode vector(count)
attr source packetDropReasonIsIncorrectlyReceived(packetDropped)
attr title "packets dropped (checksum error), count"
vector 114 SmartSubstationTopology.VoIP2_B.udp passedUpPk:vector(count) ETV
attr interpolationmode none
attr recordingmode vector(count)
attr source packetSentToUpper
attr title "packets passed up, count"
vector 115 SmartSubstationTopology.VoIP2_B.udp droppedPkWrongPort:vector(count) ETV
attr interpolationmode none
attr recordingmode vector(count)
attr source packetDropReasonIsNoPortFound(packetDropped)
attr title "packets dropped (wrong port), count"
vector 116 SmartSubstationTopology.VoIP2_B.udp droppedPkBadChecksum:vector(count) ETV
attr interpolationmode none
attr recordingmode vector(count)
attr source packetDropReasonIsIncorrectlyReceived(packetDropped)
attr title "packets dropped (checksum error), count"
vector 117 SmartSubstationTopology.MonitoringCenter_B.udp passedUpPk:vector(count) ETV
attr interpolationmode none
attr recordingmode vector(count)
attr source packetSentToUpper
attr title "packets passed up, count"
vector 118 SmartSubstationTopology.MonitoringCenter_B.udp droppedPkWrongPort:vector(count) ETV
attr interpolationmode none
attr recordingmode vector(count)
attr source packetDropReasonIsNoPortFound(packetDropped)
attr title "packets dropped (wrong port), count"
vector 119 SmartSubstationTopology.MonitoringCenter_B.udp droppedPkBadChecksum:vector(count) ETV
attr interpolationmode none
attr recordingmode vector(count)
attr source packetDropReasonIsIncorrectlyReceived(packetDropped)
attr title "packets dropped (checksum error), count"
vector 120 SmartSubstationTopology.MonitoringCenter_Main.udp passedUpPk:vector(count) ETV
attr interpolationmode none
attr recordingmode vector(count)
attr source packetSentToUpper
attr title "packets passed up, count"
vector 121 SmartSubstationTopology.MonitoringCenter_Main.udp droppedPkWrongPort:vector(count) ETV
attr interpolationmode none
attr recordingmode vector(count)
attr source packetDropReasonIsNoPortFound(packetDropped)
attr title "packets dropped (wrong port), count"
vector 122 SmartSubstationTopology.MonitoringCenter_Main.udp droppedPkBadChecksum:vector(count) ETV
attr interpolationmode none
attr recordingmode vector(count)
attr source packetDropReasonIsIncorrectlyReceived(packetDropped)
attr title "packets dropped (checksum error), count"
vector 123 SmartSubstationTopology.borderGateway1.ppp[0].ppp transmissionState:vector ETV
attr interpolationmode sample-hold
attr recordingmode vector
attr source transmissionStateChanged
attr title "tx state"
vector 124 SmartSubstationTopology.borderGateway1.ppp[1].ppp transmissionState:vector ETV
attr interpolationmode sample-hold
attr recordingmode vector
attr source transmissionStateChanged
attr title "tx state"
vector 125 SmartSubstationTopology.borderGateway1.udp passedUpPk:vector(count) ETV
attr interpolationmode none
attr recordingmode vector(count)
attr source packetSentToUpper
attr title "packets passed up, count"
vector 126 SmartSubstationTopology.borderGateway1.udp droppedPkWrongPort:vector(count) ETV
attr interpolationmode none
attr recordingmode vector(count)
attr source packetDropReasonIsNoPortFound(packetDropped)
attr title "packets dropped (wrong port), count"
vector 127 SmartSubstationTopology.borderGateway1.udp droppedPkBadChecksum:vector(count) ETV
attr interpolationmode none
attr recordingmode vector(count)
attr source packetDropReasonIsIncorrectlyReceived(packetDropped)
attr title "packets dropped (checksum error), count"
vector 128 SmartSubstationTopology.borderGateway2.ppp[0].ppp transmissionState:vector ETV
attr interpolationmode sample-hold
attr recordingmode vector
attr source transmissionStateChanged
attr title "tx state"
vector 129 SmartSubstationTopology.borderGateway2.ppp[1].ppp transmissionState:vector ETV
attr interpolationmode sample-hold
attr recordingmode vector
attr source transmissionStateChanged
attr title "tx state"
vector 130 SmartSubstationTopology.borderGateway2.udp passedUpPk:vector(count) ETV
attr interpolationmode none
attr recordingmode vector(count)
attr source packetSentToUpper
attr title "packets passed up, count"
vector 131 SmartSubstationTopology.borderGateway2.udp droppedPkWrongPort:vector(count) ETV
attr interpolationmode none
attr recordingmode vector(count)
attr source packetDropReasonIsNoPortFound(packetDropped)
attr title "packets dropped (wrong port), count"
vector 132 SmartSubstationTopology.borderGateway2.udp droppedPkBadChecksum:vector(count) ETV
attr interpolationmode none
attr recordingmode vector(count)
attr source packetDropReasonIsIncorrectlyReceived(packetDropped)
attr title "packets dropped (checksum error), count"
vector 133 SmartSubstationTopology.otnDevice.ppp[0].ppp transmissionState:vector ETV
attr interpolationmode sample-hold
attr recordingmode vector
attr source transmissionStateChanged
attr title "tx state"
vector 134 SmartSubstationTopology.otnDevice.ppp[1].ppp transmissionState:vector ETV
attr interpolationmode sample-hold
attr recordingmode vector
attr source transmissionStateChanged
attr title "tx state"
vector 135 SmartSubstationTopology.otnDevice.ppp[2].ppp transmissionState:vector ETV
attr interpolationmode sample-hold
attr recordingmode vector
attr source transmissionStateChanged
attr title "tx state"
vector 136 SmartSubstationTopology.otnDevice.ppp[3].ppp transmissionState:vector ETV
attr interpolationmode sample-hold
attr recordingmode vector
attr source transmissionStateChanged
attr title "tx state"
vector 137 SmartSubstationTopology.otnDevice.udp passedUpPk:vector(count) ETV
attr interpolationmode none
attr recordingmode vector(count)
attr source packetSentToUpper
attr title "packets passed up, count"
vector 138 SmartSubstationTopology.otnDevice.udp droppedPkWrongPort:vector(count) ETV
attr interpolationmode none
attr recordingmode vector(count)
attr source packetDropReasonIsNoPortFound(packetDropped)
attr title "packets dropped (wrong port), count"
vector 139 SmartSubstationTopology.otnDevice.udp droppedPkBadChecksum:vector(count) ETV
attr interpolationmode none
attr recordingmode vector(count)
attr source packetDropReasonIsIncorrectlyReceived(packetDropped)
attr title "packets dropped (checksum error), count"
vector 140 SmartSubstationTopology.MU_A.udp packetSent:vector(packetBytes) ETV
attr interpolationmode none
attr recordingmode vector(packetBytes)
attr source packetSent
attr title "packets sent, packetBytes"
vector 141 SmartSubstationTopology.MU_B.udp packetSent:vector(packetBytes) ETV
attr interpolationmode none
attr recordingmode vector(packetBytes)
attr source packetSent
attr title "packets sent, packetBytes"
vector 142 SmartSubstationTopology.MU_A.ipv4.arp arpRequestSent:vector(packetBytes) ETV
attr recordingmode vector(packetBytes)
attr source arpRequestSent
attr title "ARP request sent, packetBytes"
vector 143 SmartSubstationTopology.MU_B.ipv4.arp arpRequestSent:vector(packetBytes) ETV
attr recordingmode vector(packetBytes)
attr source arpRequestSent
attr title "ARP request sent, packetBytes"
vector 144 SmartSubstationTopology.MU_A.ethernet encapPk:vector(packetBytes) ETV
attr interpolationmode none
attr recordingmode vector(packetBytes)
attr source encapPk
attr title "packets encapsulated, packetBytes"
vector 145 SmartSubstationTopology.MU_B.ethernet encapPk:vector(packetBytes) ETV
attr interpolationmode none
attr recordingmode vector(packetBytes)
attr source encapPk
attr title "packets encapsulated, packetBytes"
vector 146 SmartSubstationTopology.MU_A.eth[0].queue incomingPacketLengths:vector ETV
attr interpolationmode none
attr recordingmode vector
attr source packetLength(packetPushStarted)
attr title "incoming packet lengths"
attr unit b
vector 147 SmartSubstationTopology.MU_A.eth[0].queue queueingTime:vector ETV
attr interpolationmode none
attr recordingmode vector
attr source queueingTime(packetPulled)
attr title "queueing times"
attr unit s
vector 148 SmartSubstationTopology.MU_A.eth[0].queue outgoingPacketLengths:vector ETV
attr interpolationmode none
attr recordingmode vector
attr source packetLength(packetPulled)
attr title "outgoing packet lengths"
attr unit b
vector 149 SmartSubstationTopology.MU_A.eth[0].mac packetReceivedFromUpper:vector(packetBytes) ETV
attr interpolationmode none
attr recordingmode vector(packetBytes)
attr source packetReceivedFromUpper
attr title "packet bytes from higher layer, packetBytes"
vector 150 SmartSubstationTopology.MU_A.eth[0].queue queueLength:vector ETV
attr autoWarmupFilter false
attr interpolationmode sample-hold
attr recordingmode vector
attr source "warmup(atomic(constant0(packetPushEnded) + count(packetPushStarted) - count(packetPulled) - count(packetRemoved) - count(packetDropped)))"
attr title "queue length"
attr unit pk
vector 151 SmartSubstationTopology.MU_A.eth[0].queue queueBitLength:vector ETV
attr autoWarmupFilter false
attr interpolationmode sample-hold
attr recordingmode vector
attr source "warmup(atomic(constant0(packetPushEnded) + sum(packetLength(packetPushStarted)) - sum(packetLength(packetPulled)) - sum(packetLength(packetRemoved)) - sum(packetLength(packetDropped))))"
attr title "queue bit length"
attr unit b
vector 152 SmartSubstationTopology.MU_B.eth[0].queue incomingPacketLengths:vector ETV
attr interpolationmode none
attr recordingmode vector
attr source packetLength(packetPushStarted)
attr title "incoming packet lengths"
attr unit b
vector 153 SmartSubstationTopology.MU_B.eth[0].queue queueingTime:vector ETV
attr interpolationmode none
attr recordingmode vector
attr source queueingTime(packetPulled)
attr title "queueing times"
attr unit s
vector 154 SmartSubstationTopology.MU_B.eth[0].queue outgoingPacketLengths:vector ETV
attr interpolationmode none
attr recordingmode vector
attr source packetLength(packetPulled)
attr title "outgoing packet lengths"
attr unit b
vector 155 SmartSubstationTopology.MU_B.eth[0].mac packetReceivedFromUpper:vector(packetBytes) ETV
attr interpolationmode none
attr recordingmode vector(packetBytes)
attr source packetReceivedFromUpper
attr title "packet bytes from higher layer, packetBytes"
vector 156 SmartSubstationTopology.MU_B.eth[0].queue queueLength:vector ETV
attr autoWarmupFilter false
attr interpolationmode sample-hold
attr recordingmode vector
attr source "warmup(atomic(constant0(packetPushEnded) + count(packetPushStarted) - count(packetPulled) - count(packetRemoved) - count(packetDropped)))"
attr title "queue length"
attr unit pk
vector 157 SmartSubstationTopology.MU_B.eth[0].queue queueBitLength:vector ETV
attr autoWarmupFilter false
attr interpolationmode sample-hold
attr recordingmode vector
attr source "warmup(atomic(constant0(packetPushEnded) + sum(packetLength(packetPushStarted)) - sum(packetLength(packetPulled)) - sum(packetLength(packetRemoved)) - sum(packetLength(packetDropped))))"
attr title "queue bit length"
attr unit b
vector 158 SmartSubstationTopology.MU_A.eth[0].mac txPk:vector(packetBytes) ETV
attr interpolationmode none
attr recordingmode vector(packetBytes)
attr source packetSentToLower
attr title "packets transmitted, packetBytes"
vector 159 SmartSubstationTopology.MU_B.eth[0].mac txPk:vector(packetBytes) ETV
attr interpolationmode none
attr recordingmode vector(packetBytes)
attr source packetSentToLower
attr title "packets transmitted, packetBytes"
vector 160 SmartSubstationTopology.TSN_A_ACC_PROT.eth[0].mac rxPkOk:vector(packetBytes) ETV
attr interpolationmode none
attr recordingmode vector(packetBytes)
attr source rxPkOk
attr title "packets received OK, packetBytes"
vector 161 SmartSubstationTopology.TSN_A_ACC_PROT.eth[0].mac passedUpPk:vector(packetBytes) ETV
attr interpolationmode none
attr recordingmode vector(packetBytes)
attr source packetSentToUpper
attr title "packets passed to higher layer, packetBytes"
0	55626 9 0 0 0 0 1 0 0 0 0
1	55635 9 0 0 0 0 1 0 0 0 0
2	55644 9 0 0 0 0 1 0 0 0 0
3	55653 9 0 0 0 0 1 0 0 0 0
4	55662 9 0 0 0 0 1 0 0 0 0
5	55671 9 0 0 0 0 1 0 0 0 0
6	55680 9 0 0 0 0 1 0 0 0 0
7	55689 9 0 0 0 0 1 0 0 0 0
8	55698 9 0 0 0 0 1 0 0 0 0
9	55707 9 0 0 0 0 1 0 0 0 0
10	55716 10 0 0 0 0 1 0 0 0 0
11	55726 10 0 0 0 0 1 0 0 0 0
12	55736 10 0 0 0 0 1 0 0 0 0
13	55746 10 0 0 0 0 1 0 0 0 0
14	55756 10 0 0 0 0 1 0 0 0 0
15	55766 10 0 0 0 0 1 0 0 0 0
16	55776 10 0 0 0 0 1 0 0 0 0
17	55786 10 0 0 0 0 1 0 0 0 0
18	55796 10 0 0 0 0 1 0 0 0 0
19	55806 10 0 0 0 0 1 0 0 0 0
20	55816 10 0 0 0 0 1 0 0 0 0
21	55826 10 0 0 0 0 1 0 0 0 0
22	55836 10 0 0 0 0 1 0 0 0 0
23	55846 10 0 0 0 0 1 0 0 0 0
24	55856 10 0 0 0 0 1 0 0 0 0
25	55866 10 0 0 0 0 1 0 0 0 0
26	55876 10 0 0 0 0 1 0 0 0 0
27	55886 10 0 0 0 0 1 0 0 0 0
28	55896 10 0 0 0 0 1 0 0 0 0
29	55906 10 0 0 0 0 1 0 0 0 0
30	55916 10 0 0 0 0 1 0 0 0 0
31	55926 10 0 0 0 0 1 0 0 0 0
32	55936 10 0 0 0 0 1 0 0 0 0
33	55946 10 0 0 0 0 1 0 0 0 0
34	55956 10 0 0 0 0 1 0 0 0 0
35	55966 10 0 0 0 0 1 0 0 0 0
36	55976 10 0 0 0 0 1 0 0 0 0
37	55986 10 0 0 0 0 1 0 0 0 0
38	55996 10 0 0 0 0 1 0 0 0 0
39	56006 10 0 0 0 0 1 0 0 0 0
40	56016 10 0 0 0 0 1 0 0 0 0
41	56026 10 0 0 0 0 1 0 0 0 0
42	56036 10 0 0 0 0 1 0 0 0 0
43	56046 10 0 0 0 0 1 0 0 0 0
44	56056 10 0 0 0 0 1 0 0 0 0
45	56066 10 0 0 0 0 1 0 0 0 0
46	56076 10 0 0 0 0 1 0 0 0 0
47	56086 10 0 0 0 0 1 0 0 0 0
48	56096 10 0 0 0 0 1 0 0 0 0
49	56106 10 0 0 0 0 1 0 0 0 0
50	56116 10 0 0 0 0 1 0 0 0 0
51	56126 10 0 0 0 0 1 0 0 0 0
52	56136 10 0 0 0 0 1 0 0 0 0
53	56146 10 0 0 0 0 1 0 0 0 0
54	56156 10 0 0 0 0 1 0 0 0 0
55	56166 10 0 0 0 0 1 0 0 0 0
56	56176 10 0 0 0 0 1 0 0 0 0
57	56186 10 0 0 0 0 1 0 0 0 0
58	56196 10 0 0 0 0 1 0 0 0 0
59	56206 10 0 0 0 0 1 0 0 0 0
60	56216 10 0 0 0 0 1 0 0 0 0
61	56226 10 0 0 0 0 1 0 0 0 0
62	56236 10 0 0 0 0 1 0 0 0 0
63	56246 10 0 0 0 0 1 0 0 0 0
64	56256 10 0 0 0 0 1 0 0 0 0
65	56266 10 0 0 0 0 1 0 0 0 0
66	56276 10 0 0 0 0 1 0 0 0 0
67	56286 10 0 0 0 0 1 0 0 0 0
68	56296 10 0 0 0 0 1 0 0 0 0
69	56306 10 0 0 0 0 1 0 0 0 0
70	56316 10 0 0 0 0 1 0 0 0 0
71	56326 10 0 0 0 0 1 0 0 0 0
72	56336 10 0 0 0 0 1 0 0 0 0
73	56346 10 0 0 0 0 1 0 0 0 0
74	56356 10 0 0 0 0 1 0 0 0 0
75	56366 10 0 0 0 0 1 0 0 0 0
76	56376 10 0 0 0 0 1 0 0 0 0
77	56386 10 0 0 0 0 1 0 0 0 0
78	56396 10 0 0 0 0 1 0 0 0 0
79	56406 10 0 0 0 0 1 0 0 0 0
80	56416 10 0 0 0 0 1 0 0 0 0
81	56426 10 0 0 0 0 1 0 0 0 0
82	56436 10 0 0 0 0 1 0 0 0 0
83	56446 10 0 0 0 0 1 0 0 0 0
84	56456 10 0 0 0 0 1 0 0 0 0
85	56466 10 0 0 0 0 1 0 0 0 0
86	56476 10 0 0 0 0 1 0 0 0 0
87	56486 10 0 0 0 0 1 0 0 0 0
88	56496 10 0 0 0 0 1 0 0 0 0
89	56506 10 0 0 0 0 1 0 0 0 0
90	56516 10 0 0 0 0 1 0 0 0 0
91	56526 10 0 0 0 0 1 0 0 0 0
92	56536 10 0 0 0 0 1 0 0 0 0
93	56546 10 0 0 0 0 1 0 0 0 0
94	56556 10 0 0 0 0 1 0 0 0 0
95	56566 10 0 0 0 0 1 0 0 0 0
96	56576 10 0 0 0 0 1 0 0 0 0
97	56586 10 0 0 0 0 1 0 0 0 0
98	56596 10 0 0 0 0 1 0 0 0 0
99	56606 10 0 0 0 0 1 0 0 0 0
100	56616 11 0 0 0 0 1 0 0 0 0
101	56627 11 0 0 0 0 1 0 0 0 0
102	56638 11 0 0 0 0 1 0 0 0 0
103	56649 11 0 0 0 0 1 0 0 0 0
104	56660 11 0 0 0 0 1 0 0 0 0
105	56671 11 0 0 0 0 1 0 0 0 0
106	56682 11 0 0 0 0 1 0 0 0 0
107	56693 11 0 0 0 0 1 0 0 0 0
108	56704 11 0 0 0 0 1 0 0 0 0
109	56715 11 0 0 0 0 1 0 0 0 0
110	56726 11 0 0 0 0 1 0 0 0 0
111	56737 11 0 0 0 0 1 0 0 0 0
112	56748 11 0 0 0 0 1 0 0 0 0
113	56759 11 0 0 0 0 1 0 0 0 0
114	56770 11 0 0 0 0 1 0 0 0 0
115	56781 11 0 0 0 0 1 0 0 0 0
116	56792 11 0 0 0 0 1 0 0 0 0
117	56803 11 0 0 0 0 1 0 0 0 0
118	56814 11 0 0 0 0 1 0 0 0 0
119	56825 11 0 0 0 0 1 0 0 0 0
120	56836 11 0 0 0 0 1 0 0 0 0
121	56847 11 0 0 0 0 1 0 0 0 0
122	56858 11 0 0 0 0 1 0 0 0 0
123	56869 11 0 0 0 0 1 0 0 0 0
124	56880 11 0 0 0 0 1 0 0 0 0
125	56891 11 0 0 0 0 1 0 0 0 0
126	56902 11 0 0 0 0 1 0 0 0 0
127	56913 11 0 0 0 0 1 0 0 0 0
128	56924 11 0 0 0 0 1 0 0 0 0
129	56935 11 0 0 0 0 1 0 0 0 0
130	56946 11 0 0 0 0 1 0 0 0 0
131	56957 11 0 0 0 0 1 0 0 0 0
132	56968 11 0 0 0 0 1 0 0 0 0
133	56979 11 0 0 0 0 1 0 0 0 0
134	56990 11 0 0 0 0 1 0 0 0 0
135	57001 11 0 0 0 0 1 0 0 0 0
136	57012 11 0 0 0 0 1 0 0 0 0
137	57023 11 0 0 0 0 1 0 0 0 0
138	57034 11 0 0 0 0 1 0 0 0 0
139	57045 11 0 0 0 0 1 0 0 0 0
140	57056 40 42 43 0.00025 0.00025 2 148 148 296 43808
141	57096 40 44 45 0.00025 0.00025 2 148 148 296 43808
142	57136 38 46 47 0.00025 0.00025 2 28 28 56 1568
143	57174 38 48 49 0.00025 0.00025 2 28 28 56 1568
144	57212 38 50 51 0.00025 0.00025 2 28 28 56 1568
145	57250 38 52 53 0.00025 0.00025 2 28 28 56 1568
146	57288 40 54 55 0.00025 0.00025 2 368 368 736 270848
147	57328 47 54 60 0.00025 0.000250672 2 0 6.72e-07 6.72e-07 4.51584e-13
148	57375 44 54 60 0.00025 0.000250672 2 368 368 736 270848
149	57419 42 54 60 0.00025 0.000250672 2 46 46 92 4232
150	57461 58 54 60 0.00025 0.000250672 3 0 1 1 1
151	57519 60 54 60 0.00025 0.000250672 3 0 368 368 135424
152	57579 40 56 57 0.00025 0.00025 2 368 368 736 270848
153	57619 47 56 61 0.00025 0.000250672 2 0 6.72e-07 6.72e-07 4.51584e-13
154	57666 44 56 61 0.00025 0.000250672 2 368 368 736 270848
155	57710 42 56 61 0.00025 0.000250672 2 46 46 92 4232
156	57752 58 56 61 0.00025 0.000250672 3 0 1 1 1
157	57810 60 56 61 0.00025 0.000250672 3 0 368 368 135424
158	57870 46 58 62 0.000250576 0.000251248 2 64 64 128 8192
159	57916 46 59 63 0.000250576 0.000251248 2 64 64 128 8192
160	57962 23 66 66 0.000300576 0.000300576 1 64 64 64 4096
161	57985 23 66 66 0.000300576 0.000300576 1 64 64 64 4096
vector 162 SmartSubstationTopology.TSN_B_ACC_PROT.eth[0].mac rxPkOk:vector(packetBytes) ETV
attr interpolationmode none
attr recordingmode vector(packetBytes)
attr source rxPkOk
attr title "packets received OK, packetBytes"
vector 163 SmartSubstationTopology.TSN_B_ACC_PROT.eth[0].mac passedUpPk:vector(packetBytes) ETV
attr interpolationmode none
attr recordingmode vector(packetBytes)
attr source packetSentToUpper
attr title "packets passed to higher layer, packetBytes"
162	58492 23 67 67 0.000300576 0.000300576 1 64 64 64 4096
163	58515 23 67 67 0.000300576 0.000300576 1 64 64 64 4096
vector 164 SmartSubstationTopology.TSN_A_ACC_PROT.ethernet decapPk:vector(packetBytes) ETV
attr interpolationmode none
attr recordingmode vector(packetBytes)
attr source decapPk
attr title "packets decapsulated, packetBytes"
164	58768 23 68 68 0.000300576 0.000300576 1 46 46 46 2116
vector 165 SmartSubstationTopology.TSN_B_ACC_PROT.ethernet decapPk:vector(packetBytes) ETV
attr interpolationmode none
attr recordingmode vector(packetBytes)
attr source decapPk
attr title "packets decapsulated, packetBytes"
165	59021 23 69 69 0.000300576 0.000300576 1 46 46 46 2116
vector 166 SmartSubstationTopology.TSN_A_ACC_PROT.ethernet encapPk:vector(packetBytes) ETV
attr interpolationmode none
attr recordingmode vector(packetBytes)
attr source encapPk
attr title "packets encapsulated, packetBytes"
166	59274 23 72 72 0.000300576 0.000300576 1 46 46 46 2116
166	59297 23 73 73 0.000300576 0.000300576 1 46 46 46 2116
166	59320 23 74 74 0.000300576 0.000300576 1 46 46 46 2116
vector 167 SmartSubstationTopology.TSN_B_ACC_PROT.ethernet encapPk:vector(packetBytes) ETV
attr interpolationmode none
attr recordingmode vector(packetBytes)
attr source encapPk
attr title "packets encapsulated, packetBytes"
167	59573 23 75 75 0.000300576 0.000300576 1 46 46 46 2116
167	59596 23 76 76 0.000300576 0.000300576 1 46 46 46 2116
167	59619 23 77 77 0.000300576 0.000300576 1 46 46 46 2116
vector 168 SmartSubstationTopology.TSN_A_ACC_PROT.eth[1].queue incomingPacketLengths:vector ETV
attr interpolationmode none
attr recordingmode vector
attr source packetLength(packetPushStarted)
attr title "incoming packet lengths"
attr unit b
vector 169 SmartSubstationTopology.TSN_A_ACC_PROT.eth[1].queue queueingTime:vector ETV
attr interpolationmode none
attr recordingmode vector
attr source queueingTime(packetPulled)
attr title "queueing times"
attr unit s
vector 170 SmartSubstationTopology.TSN_A_ACC_PROT.eth[1].queue outgoingPacketLengths:vector ETV
attr interpolationmode none
attr recordingmode vector
attr source packetLength(packetPulled)
attr title "outgoing packet lengths"
attr unit b
vector 171 SmartSubstationTopology.TSN_A_ACC_PROT.eth[1].mac packetReceivedFromUpper:vector(packetBytes) ETV
attr interpolationmode none
attr recordingmode vector(packetBytes)
attr source packetReceivedFromUpper
attr title "packet bytes from higher layer, packetBytes"
vector 172 SmartSubstationTopology.TSN_A_ACC_PROT.eth[1].queue queueLength:vector ETV
attr autoWarmupFilter false
attr interpolationmode sample-hold
attr recordingmode vector
attr source "warmup(atomic(constant0(packetPushEnded) + count(packetPushStarted) - count(packetPulled) - count(packetRemoved) - count(packetDropped)))"
attr title "queue length"
attr unit pk
vector 173 SmartSubstationTopology.TSN_A_ACC_PROT.eth[1].queue queueBitLength:vector ETV
attr autoWarmupFilter false
attr interpolationmode sample-hold
attr recordingmode vector
attr source "warmup(atomic(constant0(packetPushEnded) + sum(packetLength(packetPushStarted)) - sum(packetLength(packetPulled)) - sum(packetLength(packetRemoved)) - sum(packetLength(packetDropped))))"
attr title "queue bit length"
attr unit b
vector 174 SmartSubstationTopology.TSN_A_ACC_PROT.eth[2].queue incomingPacketLengths:vector ETV
attr interpolationmode none
attr recordingmode vector
attr source packetLength(packetPushStarted)
attr title "incoming packet lengths"
attr unit b
vector 175 SmartSubstationTopology.TSN_A_ACC_PROT.eth[2].queue queueingTime:vector ETV
attr interpolationmode none
attr recordingmode vector
attr source queueingTime(packetPulled)
attr title "queueing times"
attr unit s
vector 176 SmartSubstationTopology.TSN_A_ACC_PROT.eth[2].queue outgoingPacketLengths:vector ETV
attr interpolationmode none
attr recordingmode vector
attr source packetLength(packetPulled)
attr title "outgoing packet lengths"
attr unit b
vector 177 SmartSubstationTopology.TSN_A_ACC_PROT.eth[2].mac packetReceivedFromUpper:vector(packetBytes) ETV
attr interpolationmode none
attr recordingmode vector(packetBytes)
attr source packetReceivedFromUpper
attr title "packet bytes from higher layer, packetBytes"
vector 178 SmartSubstationTopology.TSN_A_ACC_PROT.eth[2].queue queueLength:vector ETV
attr autoWarmupFilter false
attr interpolationmode sample-hold
attr recordingmode vector
attr source "warmup(atomic(constant0(packetPushEnded) + count(packetPushStarted) - count(packetPulled) - count(packetRemoved) - count(packetDropped)))"
attr title "queue length"
attr unit pk
vector 179 SmartSubstationTopology.TSN_A_ACC_PROT.eth[2].queue queueBitLength:vector ETV
attr autoWarmupFilter false
attr interpolationmode sample-hold
attr recordingmode vector
attr source "warmup(atomic(constant0(packetPushEnded) + sum(packetLength(packetPushStarted)) - sum(packetLength(packetPulled)) - sum(packetLength(packetRemoved)) - sum(packetLength(packetDropped))))"
attr title "queue bit length"
attr unit b
vector 180 SmartSubstationTopology.TSN_A_ACC_PROT.eth[3].queue incomingPacketLengths:vector ETV
attr interpolationmode none
attr recordingmode vector
attr source packetLength(packetPushStarted)
attr title "incoming packet lengths"
attr unit b
vector 181 SmartSubstationTopology.TSN_A_ACC_PROT.eth[3].queue queueingTime:vector ETV
attr interpolationmode none
attr recordingmode vector
attr source queueingTime(packetPulled)
attr title "queueing times"
attr unit s
vector 182 SmartSubstationTopology.TSN_A_ACC_PROT.eth[3].queue outgoingPacketLengths:vector ETV
attr interpolationmode none
attr recordingmode vector
attr source packetLength(packetPulled)
attr title "outgoing packet lengths"
attr unit b
vector 183 SmartSubstationTopology.TSN_A_ACC_PROT.eth[3].mac packetReceivedFromUpper:vector(packetBytes) ETV
attr interpolationmode none
attr recordingmode vector(packetBytes)
attr source packetReceivedFromUpper
attr title "packet bytes from higher layer, packetBytes"
vector 184 SmartSubstationTopology.TSN_A_ACC_PROT.eth[3].queue queueLength:vector ETV
attr autoWarmupFilter false
attr interpolationmode sample-hold
attr recordingmode vector
attr source "warmup(atomic(constant0(packetPushEnded) + count(packetPushStarted) - count(packetPulled) - count(packetRemoved) - count(packetDropped)))"
attr title "queue length"
attr unit pk
vector 185 SmartSubstationTopology.TSN_A_ACC_PROT.eth[3].queue queueBitLength:vector ETV
attr autoWarmupFilter false
attr interpolationmode sample-hold
attr recordingmode vector
attr source "warmup(atomic(constant0(packetPushEnded) + sum(packetLength(packetPushStarted)) - sum(packetLength(packetPulled)) - sum(packetLength(packetRemoved)) - sum(packetLength(packetDropped))))"
attr title "queue bit length"
attr unit b
vector 186 SmartSubstationTopology.TSN_B_ACC_PROT.eth[1].queue incomingPacketLengths:vector ETV
attr interpolationmode none
attr recordingmode vector
attr source packetLength(packetPushStarted)
attr title "incoming packet lengths"
attr unit b
vector 187 SmartSubstationTopology.TSN_B_ACC_PROT.eth[1].queue queueingTime:vector ETV
attr interpolationmode none
attr recordingmode vector
attr source queueingTime(packetPulled)
attr title "queueing times"
attr unit s
vector 188 SmartSubstationTopology.TSN_B_ACC_PROT.eth[1].queue outgoingPacketLengths:vector ETV
attr interpolationmode none
attr recordingmode vector
attr source packetLength(packetPulled)
attr title "outgoing packet lengths"
attr unit b
vector 189 SmartSubstationTopology.TSN_B_ACC_PROT.eth[1].mac packetReceivedFromUpper:vector(packetBytes) ETV
attr interpolationmode none
attr recordingmode vector(packetBytes)
attr source packetReceivedFromUpper
attr title "packet bytes from higher layer, packetBytes"
vector 190 SmartSubstationTopology.TSN_B_ACC_PROT.eth[1].queue queueLength:vector ETV
attr autoWarmupFilter false
attr interpolationmode sample-hold
attr recordingmode vector
attr source "warmup(atomic(constant0(packetPushEnded) + count(packetPushStarted) - count(packetPulled) - count(packetRemoved) - count(packetDropped)))"
attr title "queue length"
attr unit pk
vector 191 SmartSubstationTopology.TSN_B_ACC_PROT.eth[1].queue queueBitLength:vector ETV
attr autoWarmupFilter false
attr interpolationmode sample-hold
attr recordingmode vector
attr source "warmup(atomic(constant0(packetPushEnded) + sum(packetLength(packetPushStarted)) - sum(packetLength(packetPulled)) - sum(packetLength(packetRemoved)) - sum(packetLength(packetDropped))))"
attr title "queue bit length"
attr unit b
vector 192 SmartSubstationTopology.TSN_B_ACC_PROT.eth[2].queue incomingPacketLengths:vector ETV
attr interpolationmode none
attr recordingmode vector
attr source packetLength(packetPushStarted)
attr title "incoming packet lengths"
attr unit b
vector 193 SmartSubstationTopology.TSN_B_ACC_PROT.eth[2].queue queueingTime:vector ETV
attr interpolationmode none
attr recordingmode vector
attr source queueingTime(packetPulled)
attr title "queueing times"
attr unit s
vector 194 SmartSubstationTopology.TSN_B_ACC_PROT.eth[2].queue outgoingPacketLengths:vector ETV
attr interpolationmode none
attr recordingmode vector
attr source packetLength(packetPulled)
attr title "outgoing packet lengths"
attr unit b
vector 195 SmartSubstationTopology.TSN_B_ACC_PROT.eth[2].mac packetReceivedFromUpper:vector(packetBytes) ETV
attr interpolationmode none
attr recordingmode vector(packetBytes)
attr source packetReceivedFromUpper
attr title "packet bytes from higher layer, packetBytes"
vector 196 SmartSubstationTopology.TSN_B_ACC_PROT.eth[2].queue queueLength:vector ETV
attr autoWarmupFilter false
attr interpolationmode sample-hold
attr recordingmode vector
attr source "warmup(atomic(constant0(packetPushEnded) + count(packetPushStarted) - count(packetPulled) - count(packetRemoved) - count(packetDropped)))"
attr title "queue length"
attr unit pk
vector 197 SmartSubstationTopology.TSN_B_ACC_PROT.eth[2].queue queueBitLength:vector ETV
attr autoWarmupFilter false
attr interpolationmode sample-hold
attr recordingmode vector
attr source "warmup(atomic(constant0(packetPushEnded) + sum(packetLength(packetPushStarted)) - sum(packetLength(packetPulled)) - sum(packetLength(packetRemoved)) - sum(packetLength(packetDropped))))"
attr title "queue bit length"
attr unit b
vector 198 SmartSubstationTopology.TSN_B_ACC_PROT.eth[3].queue incomingPacketLengths:vector ETV
attr interpolationmode none
attr recordingmode vector
attr source packetLength(packetPushStarted)
attr title "incoming packet lengths"
attr unit b
vector 199 SmartSubstationTopology.TSN_B_ACC_PROT.eth[3].queue queueingTime:vector ETV
attr interpolationmode none
attr recordingmode vector
attr source queueingTime(packetPulled)
attr title "queueing times"
attr unit s
vector 200 SmartSubstationTopology.TSN_B_ACC_PROT.eth[3].queue outgoingPacketLengths:vector ETV
attr interpolationmode none
attr recordingmode vector
attr source packetLength(packetPulled)
attr title "outgoing packet lengths"
attr unit b
vector 201 SmartSubstationTopology.TSN_B_ACC_PROT.eth[3].mac packetReceivedFromUpper:vector(packetBytes) ETV
attr interpolationmode none
attr recordingmode vector(packetBytes)
attr source packetReceivedFromUpper
attr title "packet bytes from higher layer, packetBytes"
vector 202 SmartSubstationTopology.TSN_B_ACC_PROT.eth[3].queue queueLength:vector ETV
attr autoWarmupFilter false
attr interpolationmode sample-hold
attr recordingmode vector
attr source "warmup(atomic(constant0(packetPushEnded) + count(packetPushStarted) - count(packetPulled) - count(packetRemoved) - count(packetDropped)))"
attr title "queue length"
attr unit pk
vector 203 SmartSubstationTopology.TSN_B_ACC_PROT.eth[3].queue queueBitLength:vector ETV
attr autoWarmupFilter false
attr interpolationmode sample-hold
attr recordingmode vector
attr source "warmup(atomic(constant0(packetPushEnded) + sum(packetLength(packetPushStarted)) - sum(packetLength(packetPulled)) - sum(packetLength(packetRemoved)) - sum(packetLength(packetDropped))))"
attr title "queue bit length"
attr unit b
vector 204 SmartSubstationTopology.TSN_A_ACC_PROT.eth[1].mac txPk:vector(packetBytes) ETV
attr interpolationmode none
attr recordingmode vector(packetBytes)
attr source packetSentToLower
attr title "packets transmitted, packetBytes"
vector 205 SmartSubstationTopology.TSN_A_ACC_PROT.eth[2].mac txPk:vector(packetBytes) ETV
attr interpolationmode none
attr recordingmode vector(packetBytes)
attr source packetSentToLower
attr title "packets transmitted, packetBytes"
vector 206 SmartSubstationTopology.TSN_A_ACC_PROT.eth[3].mac txPk:vector(packetBytes) ETV
attr interpolationmode none
attr recordingmode vector(packetBytes)
attr source packetSentToLower
attr title "packets transmitted, packetBytes"
vector 207 SmartSubstationTopology.TSN_B_ACC_PROT.eth[1].mac txPk:vector(packetBytes) ETV
attr interpolationmode none
attr recordingmode vector(packetBytes)
attr source packetSentToLower
attr title "packets transmitted, packetBytes"
vector 208 SmartSubstationTopology.TSN_B_ACC_PROT.eth[2].mac txPk:vector(packetBytes) ETV
attr interpolationmode none
attr recordingmode vector(packetBytes)
attr source packetSentToLower
attr title "packets transmitted, packetBytes"
vector 209 SmartSubstationTopology.TSN_B_ACC_PROT.eth[3].mac txPk:vector(packetBytes) ETV
attr interpolationmode none
attr recordingmode vector(packetBytes)
attr source packetSentToLower
attr title "packets transmitted, packetBytes"
vector 210 SmartSubstationTopology.Protection_A.eth[0].mac rxPkOk:vector(packetBytes) ETV
attr interpolationmode none
attr recordingmode vector(packetBytes)
attr source rxPkOk
attr title "packets received OK, packetBytes"
vector 211 SmartSubstationTopology.Protection_A.eth[0].mac passedUpPk:vector(packetBytes) ETV
attr interpolationmode none
attr recordingmode vector(packetBytes)
attr source packetSentToUpper
attr title "packets passed to higher layer, packetBytes"
vector 212 SmartSubstationTopology.IT_A.eth[0].mac rxPkOk:vector(packetBytes) ETV
attr interpolationmode none
attr recordingmode vector(packetBytes)
attr source rxPkOk
attr title "packets received OK, packetBytes"
vector 213 SmartSubstationTopology.IT_A.eth[0].mac passedUpPk:vector(packetBytes) ETV
attr interpolationmode none
attr recordingmode vector(packetBytes)
attr source packetSentToUpper
attr title "packets passed to higher layer, packetBytes"
vector 214 SmartSubstationTopology.Protection_B.eth[0].mac rxPkOk:vector(packetBytes) ETV
attr interpolationmode none
attr recordingmode vector(packetBytes)
attr source rxPkOk
attr title "packets received OK, packetBytes"
vector 215 SmartSubstationTopology.Protection_B.eth[0].mac passedUpPk:vector(packetBytes) ETV
attr interpolationmode none
attr recordingmode vector(packetBytes)
attr source packetSentToUpper
attr title "packets passed to higher layer, packetBytes"
vector 216 SmartSubstationTopology.IT_B.eth[0].mac rxPkOk:vector(packetBytes) ETV
attr interpolationmode none
attr recordingmode vector(packetBytes)
attr source rxPkOk
attr title "packets received OK, packetBytes"
vector 217 SmartSubstationTopology.IT_B.eth[0].mac passedUpPk:vector(packetBytes) ETV
attr interpolationmode none
attr recordingmode vector(packetBytes)
attr source packetSentToUpper
attr title "packets passed to higher layer, packetBytes"
vector 218 SmartSubstationTopology.Protection_A.ethernet decapPk:vector(packetBytes) ETV
attr interpolationmode none
attr recordingmode vector(packetBytes)
attr source decapPk
attr title "packets decapsulated, packetBytes"
vector 219 SmartSubstationTopology.IT_A.ethernet decapPk:vector(packetBytes) ETV
attr interpolationmode none
attr recordingmode vector(packetBytes)
attr source decapPk
attr title "packets decapsulated, packetBytes"
vector 220 SmartSubstationTopology.Protection_B.ethernet decapPk:vector(packetBytes) ETV
attr interpolationmode none
attr recordingmode vector(packetBytes)
attr source decapPk
attr title "packets decapsulated, packetBytes"
vector 221 SmartSubstationTopology.IT_B.ethernet decapPk:vector(packetBytes) ETV
attr interpolationmode none
attr recordingmode vector(packetBytes)
attr source decapPk
attr title "packets decapsulated, packetBytes"
vector 222 SmartSubstationTopology.Protection_A.ipv4.arp arpReplySent:vector(packetBytes) ETV
attr recordingmode vector(packetBytes)
attr source arpReplySent
attr title "ARP replies sent, packetBytes"
vector 223 SmartSubstationTopology.Protection_B.ipv4.arp arpReplySent:vector(packetBytes) ETV
attr recordingmode vector(packetBytes)
attr source arpReplySent
attr title "ARP replies sent, packetBytes"
vector 224 SmartSubstationTopology.Protection_A.ethernet encapPk:vector(packetBytes) ETV
attr interpolationmode none
attr recordingmode vector(packetBytes)
attr source encapPk
attr title "packets encapsulated, packetBytes"
vector 225 SmartSubstationTopology.Protection_B.ethernet encapPk:vector(packetBytes) ETV
attr interpolationmode none
attr recordingmode vector(packetBytes)
attr source encapPk
attr title "packets encapsulated, packetBytes"
vector 226 SmartSubstationTopology.Protection_A.eth[0].queue incomingPacketLengths:vector ETV
attr interpolationmode none
attr recordingmode vector
attr source packetLength(packetPushStarted)
attr title "incoming packet lengths"
attr unit b
vector 227 SmartSubstationTopology.Protection_A.eth[0].queue queueingTime:vector ETV
attr interpolationmode none
attr recordingmode vector
attr source queueingTime(packetPulled)
attr title "queueing times"
attr unit s
vector 228 SmartSubstationTopology.Protection_A.eth[0].queue outgoingPacketLengths:vector ETV
attr interpolationmode none
attr recordingmode vector
attr source packetLength(packetPulled)
attr title "outgoing packet lengths"
attr unit b
vector 229 SmartSubstationTopology.Protection_A.eth[0].mac packetReceivedFromUpper:vector(packetBytes) ETV
attr interpolationmode none
attr recordingmode vector(packetBytes)
attr source packetReceivedFromUpper
attr title "packet bytes from higher layer, packetBytes"
vector 230 SmartSubstationTopology.Protection_A.eth[0].queue queueLength:vector ETV
attr autoWarmupFilter false
attr interpolationmode sample-hold
attr recordingmode vector
attr source "warmup(atomic(constant0(packetPushEnded) + count(packetPushStarted) - count(packetPulled) - count(packetRemoved) - count(packetDropped)))"
attr title "queue length"
attr unit pk
vector 231 SmartSubstationTopology.Protection_A.eth[0].queue queueBitLength:vector ETV
attr autoWarmupFilter false
attr interpolationmode sample-hold
attr recordingmode vector
attr source "warmup(atomic(constant0(packetPushEnded) + sum(packetLength(packetPushStarted)) - sum(packetLength(packetPulled)) - sum(packetLength(packetRemoved)) - sum(packetLength(packetDropped))))"
attr title "queue bit length"
attr unit b
vector 232 SmartSubstationTopology.Protection_B.eth[0].queue incomingPacketLengths:vector ETV
attr interpolationmode none
attr recordingmode vector
attr source packetLength(packetPushStarted)
attr title "incoming packet lengths"
attr unit b
vector 233 SmartSubstationTopology.Protection_B.eth[0].queue queueingTime:vector ETV
attr interpolationmode none
attr recordingmode vector
attr source queueingTime(packetPulled)
attr title "queueing times"
attr unit s
vector 234 SmartSubstationTopology.Protection_B.eth[0].queue outgoingPacketLengths:vector ETV
attr interpolationmode none
attr recordingmode vector
attr source packetLength(packetPulled)
attr title "outgoing packet lengths"
attr unit b
[...]
1230	163784630 388 3574272 3574272 1 2.787806304 19 0 15360 15360 235929600
1231	163785018 388 3574272 3574272 1 2.787806304 19 0 15360 15360 235929600
1232	163785406 388 3574272 3574272 1 2.787806304 19 0 15360 15360 235929600
1233	163785794 42 3574272 3574272 2.787806304 2.787806304 1 4040894.3758753 4040894.3758753 4040894.3758753 16328827356981
1234	163785836 42 3574272 3574272 2.787806304 2.787806304 1 4040894.3758753 4040894.3758753 4040894.3758753 16328827356981
1235	163785878 388 3574272 3574272 1 2.787806304 19 0 15360 15360 235929600
1236	163786266 388 3574272 3574272 1 2.787806304 19 0 15360 15360 235929600
1237	163786654 388 3574272 3574272 1 2.787806304 19 0 15360 15360 235929600
1238	163787042 388 3574272 3574272 1 2.787806304 19 0 15360 15360 235929600
1239	163787430 88 3574272 3574272 2.631904048 2.787806304 3 0 17600 17600 309760000
1240	163787518 88 3574272 3574272 2.631904048 2.787806304 3 0 17600 17600 309760000
1241	163787606 388 3574272 3574272 1 2.787806304 19 0 15360 15360 235929600
1242	163787994 388 3574272 3574272 1 2.787806304 19 0 15360 15360 235929600
1243	163788382 388 3574272 3574272 1 2.787806304 19 0 15360 15360 235929600
1244	163788770 388 3574272 3574272 1 2.787806304 19 0 15360 15360 235929600
1245	163789158 388 3574272 3574272 1 2.787806304 19 0 15360 15360 235929600
1246	163789546 388 3574272 3574272 1 2.787806304 19 0 15360 15360 235929600
1247	163789934 388 3574272 3574272 1 2.787806304 19 0 15360 15360 235929600
1248	163790322 388 3574272 3574272 1 2.787806304 19 0 15360 15360 235929600
1249	163790710 388 3574272 3574272 1 2.787806304 19 0 15360 15360 235929600
1250	163791098 388 3574272 3574272 1 2.787806304 19 0 15360 15360 235929600
1251	163791486 388 3574272 3574272 1 2.787806304 19 0 15360 15360 235929600
1252	163791874 388 3574272 3574272 1 2.787806304 19 0 15360 15360 235929600
1253	163792262 388 3574272 3574272 1 2.787806304 19 0 15360 15360 235929600
1254	163792650 388 3574272 3574272 1 2.787806304 19 0 15360 15360 235929600
1255	163793038 388 3574272 3574272 1 2.787806304 19 0 15360 15360 235929600
1256	163793426 388 3574272 3574272 1 2.787806304 19 0 15360 15360 235929600
1257	163793814 388 3574272 3574272 1 2.787806304 19 0 15360 15360 235929600
1258	163794202 388 3574272 3574272 1 2.787806304 19 0 15360 15360 235929600
1259	163794590 388 3574272 3574272 1 2.787806304 19 0 15360 15360 235929600
1260	163794978 388 3574272 3574272 1 2.787806304 19 0 15360 15360 235929600
1261	163795366 388 3574272 3574272 1 2.787806304 19 0 15360 15360 235929600
1262	163795754 388 3574272 3574272 1 2.787806304 19 0 15360 15360 235929600
1264	163796142 72 3574272 3574272 2.6 2.787806304 3 0 11840 11840 140185600
1267	163796214 72 3574272 3574272 2.6 2.787806304 3 0 11840 11840 140185600
1279	163796286 42 3574272 3574272 2.787806304 2.787806304 1 89651.877386845 89651.877386845 89651.877386845 8037459118.9858
1282	163796328 42 3574272 3574272 2.787806304 2.787806304 1 89651.877386845 89651.877386845 89651.877386845 8037459118.9858
1289	163796370 42 3574272 3574272 2.787806304 2.787806304 1 20226.338190934 20226.338190934 20226.338190934 409104756.61405
1290	163796412 42 3574272 3574272 2.787806304 2.787806304 1 20226.338190934 20226.338190934 20226.338190934 409104756.61405
1291	163796454 42 3574272 3574272 2.787806304 2.787806304 1 20226.338190934 20226.338190934 20226.338190934 409104756.61405
1292	163796496 42 3574272 3574272 2.787806304 2.787806304 1 20226.338190934 20226.338190934 20226.338190934 409104756.61405
1293	163796538 42 3574272 3574272 2.787806304 2.787806304 1 20226.338190934 20226.338190934 20226.338190934 409104756.61405
1294	163796580 42 3574272 3574272 2.787806304 2.787806304 1 20226.338190934 20226.338190934 20226.338190934 409104756.61405
1295	163796622 42 3574272 3574272 2.787806304 2.787806304 1 20226.338190934 20226.338190934 20226.338190934 409104756.61405
1296	163796664 42 3574272 3574272 2.787806304 2.787806304 1 20226.338190934 20226.338190934 20226.338190934 409104756.61405
1297	163796706 42 3574272 3574272 2.787806304 2.787806304 1 13484.225460623 13484.225460623 13484.225460623 181824336.27291
1298	163796748 42 3574272 3574272 2.787806304 2.787806304 1 13484.225460623 13484.225460623 13484.225460623 181824336.27291
1300	163796790 42 3574272 3574272 2.787806304 2.787806304 1 3841910.9406997 3841910.9406997 3841910.9406997 14760279676268
1303	163796832 42 3574272 3574272 2.787806304 2.787806304 1 3841910.9406997 3841910.9406997 3841910.9406997 14760279676268
1310	163796874 387 3574272 3574272 1 2.787806304 19 0 5120 5120 26214400
1311	163797261 387 3574272 3574272 1 2.787806304 19 0 5120 5120 26214400
1312	163797648 387 3574272 3574272 1 2.787806304 19 0 5120 5120 26214400
1313	163798035 387 3574272 3574272 1 2.787806304 19 0 5120 5120 26214400
1314	163798422 387 3574272 3574272 1 2.787806304 19 0 5120 5120 26214400
1315	163798809 387 3574272 3574272 1 2.787806304 19 0 5120 5120 26214400
1316	163799196 42 3574272 3574272 2.787806304 2.787806304 1 4098293.4437145 4098293.4437145 4098293.4437145 16796009150793
1317	163799238 42 3574272 3574272 2.787806304 2.787806304 1 4098293.4437145 4098293.4437145 4098293.4437145 16796009150793
1318	163799280 42 3574272 3574272 2.787806304 2.787806304 1 121358.02914561 121358.02914561 121358.02914561 14727771238.106
1319	163799322 42 3574272 3574272 2.787806304 2.787806304 1 121358.02914561 121358.02914561 121358.02914561 14727771238.106
1322	163799364 387 3574272 3574272 1 2.787806304 19 0 5120 5120 26214400
1323	163799751 387 3574272 3574272 1 2.787806304 19 0 5120 5120 26214400
1324	163800138 88 3574272 3574272 2.631904048 2.787806304 3 0 17600 17600 309760000
1325	163800226 88 3574272 3574272 2.631904048 2.787806304 3 0 17600 17600 309760000
1326	163800314 387 3574272 3574272 1 2.787806304 19 0 5120 5120 26214400
1327	163800701 387 3574272 3574272 1 2.787806304 19 0 5120 5120 26214400
1328	163801088 387 3574272 3574272 1 2.787806304 19 0 5120 5120 26214400
1329	163801475 387 3574272 3574272 1 2.787806304 19 0 5120 5120 26214400
1330	163801862 387 3574272 3574272 1 2.787806304 19 0 5120 5120 26214400
1331	163802249 387 3574272 3574272 1 2.787806304 19 0 5120 5120 26214400
1333	163802636 42 3574272 3574272 2.787806304 2.787806304 1 242716.05829121 242716.05829121 242716.05829121 58911084952.424
1336	163802678 42 3574272 3574272 2.787806304 2.787806304 1 242716.05829121 242716.05829121 242716.05829121 58911084952.424
1340	163802720 42 3574272 3574272 2.787806304 2.787806304 1 20226.338190934 20226.338190934 20226.338190934 409104756.61405
1341	163802762 42 3574272 3574272 2.787806304 2.787806304 1 20226.338190934 20226.338190934 20226.338190934 409104756.61405
1342	163802804 42 3574272 3574272 2.787806304 2.787806304 1 20226.338190934 20226.338190934 20226.338190934 409104756.61405
1343	163802846 42 3574272 3574272 2.787806304 2.787806304 1 20226.338190934 20226.338190934 20226.338190934 409104756.61405
1344	163802888 42 3574272 3574272 2.787806304 2.787806304 1 13484.225460623 13484.225460623 13484.225460623 181824336.27291
1345	163802930 42 3574272 3574272 2.787806304 2.787806304 1 13484.225460623 13484.225460623 13484.225460623 181824336.27291
1346	163802972 42 3574272 3574272 2.787806304 2.787806304 1 13484.225460623 13484.225460623 13484.225460623 181824336.27291
1347	163803014 42 3574272 3574272 2.787806304 2.787806304 1 13484.225460623 13484.225460623 13484.225460623 181824336.27291
1348	163803056 42 3574272 3574272 2.787806304 2.787806304 1 20226.338190934 20226.338190934 20226.338190934 409104756.61405
1349	163803098 42 3574272 3574272 2.787806304 2.787806304 1 20226.338190934 20226.338190934 20226.338190934 409104756.61405
1350	163803140 42 3574272 3574272 2.787806304 2.787806304 1 33710.563651557 33710.563651557 33710.563651557 1136402101.7057
1351	163803182 42 3574272 3574272 2.787806304 2.787806304 1 33710.563651557 33710.563651557 33710.563651557 1136402101.7057
1355	163803224 42 3574272 3574272 2.787806304 2.787806304 1 121358.02914561 121358.02914561 121358.02914561 14727771238.106
1356	163803266 42 3574272 3574272 2.787806304 2.787806304 1 121358.02914561 121358.02914561 121358.02914561 14727771238.106
1357	163803308 42 3574272 3574272 2.787806304 2.787806304 1 26968.450921246 26968.450921246 26968.450921246 727297345.09165
1358	163803350 42 3574272 3574272 2.787806304 2.787806304 1 26968.450921246 26968.450921246 26968.450921246 727297345.09165
1365	163803392 42 3574272 3574272 2.787806304 2.787806304 1 89651.877386845 89651.877386845 89651.877386845 8037459118.9858
1368	163803434 42 3574272 3574272 2.787806304 2.787806304 1 89651.877386845 89651.877386845 89651.877386845 8037459118.9858
1375	163803476 73 3574272 3574272 2.6 2.787806304 3 0 245360 245360 60201529600
1376	163803549 73 3574272 3574272 2.6 2.787806304 3 0 245360 245360 60201529600
1382	163803622 42 3574272 3574272 2.787806304 2.787806304 1 112064.84673356 112064.84673356 112064.84673356 12558529873.415
1385	163803664 42 3574272 3574272 2.787806304 2.787806304 1 112064.84673356 112064.84673356 112064.84673356 12558529873.415
1393	163803706 42 3574272 3574272 2.787806304 2.787806304 1 182219.26298139 182219.26298139 182219.26298139 33203859801.481
1401	163803748 42 3574272 3574272 2.787806304 2.787806304 1 112064.84673356 112064.84673356 112064.84673356 12558529873.415
1404	163803790 42 3574272 3574272 2.787806304 2.787806304 1 112064.84673356 112064.84673356 112064.84673356 12558529873.415
1413	163803832 88 3574272 3574272 2.630894896 2.787806304 3 0 35200 35200 1239040000
1414	163803920 88 3574272 3574272 2.630894896 2.787806304 3 0 35200 35200 1239040000
1418	163804008 507 3574272 3574272 0.4 2.787806304 25 0 3680 3680 13542400
1421	163804515 507 3574272 3574272 0.4 2.787806304 25 0 3680 3680 13542400
1430	163805022 88 3574272 3574272 2.631954992 2.787806304 3 0 10240 10240 104857600
1436	163805110 42 3574272 3574272 2.787806304 2.787806304 1 721588.28140631 721588.28140631 721588.28140631 520689647862.91
1439	163805152 42 3574272 3574272 2.787806304 2.787806304 1 721588.28140631 721588.28140631 721588.28140631 520689647862.91
1446	163805194 408 3574272 3574272 0.9 2.787806304 20 0 11040 11040 121881600
1447	163805602 408 3574272 3574272 0.9 2.787806304 20 0 11040 11040 121881600
1451	163806010 507 3574272 3574272 0.4 2.787806304 25 0 3680 3680 13542400
1454	163806517 507 3574272 3574272 0.4 2.787806304 25 0 3680 3680 13542400
1463	163807024 88 3574272 3574272 2.631954992 2.787806304 3 0 10240 10240 104857600
1469	163807112 42 3574272 3574272 2.787806304 2.787806304 1 721588.28140631 721588.28140631 721588.28140631 520689647862.91
1472	163807154 42 3574272 3574272 2.787806304 2.787806304 1 721588.28140631 721588.28140631 721588.28140631 520689647862.91
1483	163807196 229 3574272 3574272 2.130894896 2.787806304 8 0 624800 624800 390375040000
1484	163807425 229 3574272 3574272 2.130894896 2.787806304 8 0 624800 624800 390375040000
1490	163807654 42 3574272 3574272 2.787806304 2.787806304 1 865905.93768757 865905.93768757 865905.93768757 749793092922.59
1493	163807696 42 3574272 3574272 2.787806304 2.787806304 1 865905.93768757 865905.93768757 865905.93768757 749793092922.59
1505	163807738 42 3574272 3574272 2.787806304 2.787806304 1 865905.93768757 865905.93768757 865905.93768757 749793092922.59
1508	163807780 42 3574272 3574272 2.787806304 2.787806304 1 865905.93768757 865905.93768757 865905.93768757 749793092922.59
1520	163807822 42 3574272 3574272 2.787806304 2.787806304 1 721588.28140631 721588.28140631 721588.28140631 520689647862.91
1523	163807864 42 3574272 3574272 2.787806304 2.787806304 1 721588.28140631 721588.28140631 721588.28140631 520689647862.91
1535	163807906 42 3574272 3574272 2.787806304 2.787806304 1 577270.62512505 577270.62512505 577270.62512505 333241374632.26
1538	163807948 42 3574272 3574272 2.787806304 2.787806304 1 577270.62512505 577270.62512505 577270.62512505 333241374632.26
1551	163807990 42 3574272 3574272 2.787806304 2.787806304 1 865905.93768757 865905.93768757 865905.93768757 749793092922.59
1554	163808032 42 3574272 3574272 2.787806304 2.787806304 1 865905.93768757 865905.93768757 865905.93768757 749793092922.59
1567	163808074 42 3574272 3574272 2.787806304 2.787806304 1 721588.28140631 721588.28140631 721588.28140631 520689647862.91
1570	163808116 42 3574272 3574272 2.787806304 2.787806304 1 721588.28140631 721588.28140631 721588.28140631 520689647862.91
1583	163808158 42 3574272 3574272 2.787806304 2.787806304 1 865905.93768757 865905.93768757 865905.93768757 749793092922.59
1586	163808200 42 3574272 3574272 2.787806304 2.787806304 1 865905.93768757 865905.93768757 865905.93768757 749793092922.59
1598	163808242 42 3574272 3574272 2.787806304 2.787806304 1 721588.28140631 721588.28140631 721588.28140631 520689647862.91
1601	163808284 42 3574272 3574272 2.787806304 2.787806304 1 721588.28140631 721588.28140631 721588.28140631 520689647862.91
1618	163808326 42 3574272 3574272 2.787806304 2.787806304 1 721588.28140631 721588.28140631 721588.28140631 520689647862.91
1621	163808368 42 3574272 3574272 2.787806304 2.787806304 1 721588.28140631 721588.28140631 721588.28140631 520689647862.91
1637	163808410 42 3574272 3574272 2.787806304 2.787806304 1 865905.93768757 865905.93768757 865905.93768757 749793092922.59
1640	163808452 42 3574272 3574272 2.787806304 2.787806304 1 865905.93768757 865905.93768757 865905.93768757 749793092922.59
1653	163808494 42 3574272 3574272 2.787806304 2.787806304 1 577270.62512505 577270.62512505 577270.62512505 333241374632.26
1656	163808536 42 3574272 3574272 2.787806304 2.787806304 1 577270.62512505 577270.62512505 577270.62512505 333241374632.26
1668	163808578 42 3574272 3574272 2.787806304 2.787806304 1 721588.28140631 721588.28140631 721588.28140631 520689647862.91
1671	163808620 42 3574272 3574272 2.787806304 2.787806304 1 721588.28140631 721588.28140631 721588.28140631 520689647862.91
1686	163808662 42 3574272 3574272 2.787806304 2.787806304 1 865905.93768757 865905.93768757 865905.93768757 749793092922.59
1689	163808704 42 3574272 3574272 2.787806304 2.787806304 1 865905.93768757 865905.93768757 865905.93768757 749793092922.59
1702	163808746 564 3574272 3574272 0.1 2.787806304 28 0 0 0 0
1703	163809310 564 3574272 3574272 0.1 2.787806304 28 0 0 0 0
1704	163809874 564 3574272 3574272 0.1 2.787806304 28 0 0 0 0
1705	163810438 564 3574272 3574272 0.1 2.787806304 28 0 0 0 0
1706	163811002 564 3574272 3574272 0.1 2.787806304 28 0 0 0 0
1707	163811566 564 3574272 3574272 0.1 2.787806304 28 0 0 0 0
1708	163812130 564 3574272 3574272 0.1 2.787806304 28 0 0 0 0
1709	163812694 564 3574272 3574272 0.1 2.787806304 28 0 0 0 0
1710	163813258 564 3574272 3574272 0.1 2.787806304 28 0 0 0 0
1711	163813822 564 3574272 3574272 0.1 2.787806304 28 0 0 0 0
1712	163814386 564 3574272 3574272 0.1 2.787806304 28 0 0 0 0
1713	163814950 564 3574272 3574272 0.1 2.787806304 28 0 0 0 0
1714	163815514 564 3574272 3574272 0.1 2.787806304 28 0 0 0 0
1715	163816078 564 3574272 3574272 0.1 2.787806304 28 0 0 0 0
1716	163816642 564 3574272 3574272 0.1 2.787806304 28 0 0 0 0
1717	163817206 564 3574272 3574272 0.1 2.787806304 28 0 0 0 0
1718	163817770 564 3574272 3574272 0.1 2.787806304 28 0 0 0 0
1719	163818334 568 3574272 3574272 0.1 2.787806304 28 0 11040 11040 121881600
1720	163818902 568 3574272 3574272 0.1 2.787806304 28 0 11040 11040 121881600
1721	163819470 564 3574272 3574272 0.1 2.787806304 28 0 0 0 0
1722	163820034 564 3574272 3574272 0.1 2.787806304 28 0 0 0 0
1723	163820598 564 3574272 3574272 0.1 2.787806304 28 0 0 0 0
1724	163821162 564 3574272 3574272 0.1 2.787806304 28 0 0 0 0
1725	163821726 564 3574272 3574272 0.1 2.787806304 28 0 0 0 0
1726	163822290 564 3574272 3574272 0.1 2.787806304 28 0 0 0 0
1727	163822854 564 3574272 3574272 0.1 2.787806304 28 0 0 0 0
1728	163823418 564 3574272 3574272 0.1 2.787806304 28 0 0 0 0
1729	163823982 564 3574272 3574272 0.1 2.787806304 28 0 0 0 0
1730	163824546 564 3574272 3574272 0.1 2.787806304 28 0 0 0 0
1731	163825110 564 3574272 3574272 0.1 2.787806304 28 0 0 0 0
1732	163825674 564 3574272 3574272 0.1 2.787806304 28 0 0 0 0
1733	163826238 564 3574272 3574272 0.1 2.787806304 28 0 0 0 0
1734	163826802 564 3574272 3574272 0.1 2.787806304 28 0 0 0 0
1735	163827366 564 3574272 3574272 0.1 2.787806304 28 0 0 0 0
1736	163827930 564 3574272 3574272 0.1 2.787806304 28 0 0 0 0
1737	163828494 564 3574272 3574272 0.1 2.787806304 28 0 0 0 0
1738	163829058 564 3574272 3574272 0.1 2.787806304 28 0 0 0 0
1739	163829622 564 3574272 3574272 0.1 2.787806304 28 0 0 0 0
1740	163830186 564 3574272 3574272 0.1 2.787806304 28 0 0 0 0
1741	163830750 564 3574272 3574272 0.1 2.787806304 28 0 0 0 0
1742	163831314 564 3574272 3574272 0.1 2.787806304 28 0 0 0 0
1743	163831878 564 3574272 3574272 0.1 2.787806304 28 0 0 0 0
1744	163832442 564 3574272 3574272 0.1 2.787806304 28 0 0 0 0
1745	163833006 564 3574272 3574272 0.1 2.787806304 28 0 0 0 0
1746	163833570 564 3574272 3574272 0.1 2.787806304 28 0 0 0 0
1747	163834134 564 3574272 3574272 0.1 2.787806304 28 0 0 0 0
1748	163834698 564 3574272 3574272 0.1 2.787806304 28 0 0 0 0
1749	163835262 564 3574272 3574272 0.1 2.787806304 28 0 0 0 0
1750	163835826 564 3574272 3574272 0.1 2.787806304 28 0 0 0 0
1751	163836390 564 3574272 3574272 0.1 2.787806304 28 0 0 0 0
1752	163836954 564 3574272 3574272 0.1 2.787806304 28 0 0 0 0
1753	163837518 564 3574272 3574272 0.1 2.787806304 28 0 0 0 0
1754	163838082 564 3574272 3574272 0.1 2.787806304 28 0 0 0 0
1755	163838646 564 3574272 3574272 0.1 2.787806304 28 0 0 0 0
1756	163839210 564 3574272 3574272 0.1 2.787806304 28 0 0 0 0
1757	163839774 564 3574272 3574272 0.1 2.787806304 28 0 0 0 0
1758	163840338 564 3574272 3574272 0.1 2.787806304 28 0 0 0 0
1759	163840902 564 3574272 3574272 0.1 2.787806304 28 0 0 0 0
1760	163841466 568 3574272 3574272 0.1 2.787806304 28 0 11040 11040 121881600
1761	163842034 568 3574272 3574272 0.1 2.787806304 28 0 11040 11040 121881600
1762	163842602 564 3574272 3574272 0.1 2.787806304 28 0 0 0 0
1763	163843166 564 3574272 3574272 0.1 2.787806304 28 0 0 0 0
1764	163843730 564 3574272 3574272 0.1 2.787806304 28 0 0 0 0
1765	163844294 564 3574272 3574272 0.1 2.787806304 28 0 0 0 0
1766	163844858 564 3574272 3574272 0.1 2.787806304 28 0 0 0 0
1767	163845422 564 3574272 3574272 0.1 2.787806304 28 0 0 0 0
1768	163845986 564 3574272 3574272 0.1 2.787806304 28 0 0 0 0
1769	163846550 564 3574272 3574272 0.1 2.787806304 28 0 0 0 0
1770	163847114 564 3574272 3574272 0.1 2.787806304 28 0 0 0 0
1771	163847678 564 3574272 3574272 0.1 2.787806304 28 0 0 0 0
1772	163848242 564 3574272 3574272 0.1 2.787806304 28 0 0 0 0
1773	163848806 564 3574272 3574272 0.1 2.787806304 28 0 0 0 0
1774	163849370 564 3574272 3574272 0.1 2.787806304 28 0 0 0 0
1775	163849934 564 3574272 3574272 0.1 2.787806304 28 0 0 0 0
1776	163850498 564 3574272 3574272 0.1 2.787806304 28 0 0 0 0
1777	163851062 564 3574272 3574272 0.1 2.787806304 28 0 0 0 0
1778	163851626 564 3574272 3574272 0.1 2.787806304 28 0 0 0 0
1779	163852190 564 3574272 3574272 0.1 2.787806304 28 0 0 0 0
1780	163852754 564 3574272 3574272 0.1 2.787806304 28 0 0 0 0
1781	163853318 564 3574272 3574272 0.1 2.787806304 28 0 0 0 0
1782	163853882 564 3574272 3574272 0.1 2.787806304 28 0 0 0 0
1783	163854446 564 3574272 3574272 0.1 2.787806304 28 0 0 0 0
1784	163855010 564 3574272 3574272 0.1 2.787806304 28 0 0 0 0
1785	163855574 564 3574272 3574272 0.1 2.787806304 28 0 0 0 0
1786	163856138 564 3574272 3574272 0.1 2.787806304 28 0 0 0 0
1787	163856702 564 3574272 3574272 0.1 2.787806304 28 0 0 0 0
1788	163857266 564 3574272 3574272 0.1 2.787806304 28 0 0 0 0
1789	163857830 564 3574272 3574272 0.1 2.787806304 28 0 0 0 0
1790	163858394 564 3574272 3574272 0.1 2.787806304 28 0 0 0 0
1791	163858958 564 3574272 3574272 0.1 2.787806304 28 0 0 0 0
1792	163859522 564 3574272 3574272 0.1 2.787806304 28 0 0 0 0
1793	163860086 564 3574272 3574272 0.1 2.787806304 28 0 0 0 0
1794	163860650 564 3574272 3574272 0.1 2.787806304 28 0 0 0 0

