file 591338 1769431402                                          
version 3
run General-0-20260126-20:40:34-12332
attr configname General
attr datetime 20260126-20:40:34
attr datetimef 20260126-204034
attr experiment General
attr inifile demo.ini
attr iterationvars ""
attr iterationvarsd ""
attr iterationvarsf ""
attr measurement ""
attr network SmartSubstationTopology
attr processid 12332
attr repetition 0
attr replication #0
attr resultdir results
attr runnumber 0
attr seedset 0
config image-path ../inet4.5/images
config network SmartSubstationTopology
config sim-time-limit 10s
config ned-path .;src;../inet4.5/src
config *.configurator.typename IPv4NetworkConfigurator
config **.hasIpv4 true
config **.hasUdp true
config **.hasTcp false
config *.borderGateway1.hasIpv4 true
config *.borderGateway1.forwarding true
config *.borderGateway2.hasIpv4 true
config *.borderGateway2.forwarding true
config *.otnDevice.hasIpv4 true
config *.otnDevice.forwarding true
config **.eth[*].typename EthernetInterface
config **.ppp[*].typename PppInterface
config *.MU_A.numApps 1
config *.MU_A.app[0].typename src.apps.SvGeneratorApp
config *.MU_A.app[0].localDestAddress "\"Protection_A\""
config *.MU_A.app[0].localDestPort 2000
config *.MU_A.app[0].remoteDestAddress "\"Protection_B\""
config *.MU_A.app[0].remoteDestPort 2001
config *.MU_A.app[0].messageLength 140B
config *.MU_A.app[0].sendInterval 250us
config *.MU_A.app[0].currentBase 100A
config *.MU_A.app[0].noiseStd 1A
config *.Protection_A.numApps 1
config *.Protection_A.app[0].typename src.apps.DifferentialProtectionApp
config *.Protection_A.app[0].localPort 2000
config *.Protection_A.app[0].remotePort 2001
config *.Protection_A.app[0].threshold 5A
config *.Protection_A.app[0].gooseDestLocal "\"IT_A\""
config *.Protection_A.app[0].gooseDestRemote "\"IT_B\""
config *.Protection_A.app[0].goosePort 3000
config *.IT_A.numApps 1
config *.IT_A.app[0].typename UdpSink
config *.IT_A.app[0].localPort 3000
config *.IT_A.app[0].verbose true
config *.IT_B.numApps 1
config *.IT_B.app[0].typename UdpSink
config *.IT_B.app[0].localPort 3000
config *.IT_B.app[0].verbose true
config *.MU_B.numApps 1
config *.MU_B.app[0].typename src.apps.SvGeneratorApp
config *.MU_B.app[0].localDestAddress "\"Protection_B\""
config *.MU_B.app[0].localDestPort 2000
config *.MU_B.app[0].remoteDestAddress "\"Protection_A\""
config *.MU_B.app[0].remoteDestPort 2001
config *.MU_B.app[0].messageLength 140B
config *.MU_B.app[0].sendInterval 250us
config *.MU_B.app[0].currentBase 100A
config *.MU_B.app[0].noiseStd 1A
config *.BusProtection_A.numApps 1
config *.BusProtection_A.app[0].typename UdpSink
config *.BusProtection_A.app[0].localPort 5000
config *.BusProtection_A.app[0].verbose true
config *.Protection_B.numApps 1
config *.Protection_B.app[0].typename src.apps.DifferentialProtectionApp
config *.Protection_B.app[0].localPort 2000
config *.Protection_B.app[0].remotePort 2001
config *.Protection_B.app[0].threshold 5A
config *.Protection_B.app[0].gooseDestLocal "\"IT_B\""
config *.Protection_B.app[0].gooseDestRemote "\"IT_A\""
config *.Protection_B.app[0].goosePort 3000
config *.BusProtection_MU1_A.numApps 1
config *.BusProtection_MU1_A.app[0].typename UdpBasicApp
config *.BusProtection_MU1_A.app[0].localPort 5101
config *.BusProtection_MU1_A.app[0].destAddresses "\"BusProtection_A\""
config *.BusProtection_MU1_A.app[0].destPort 5000
config *.BusProtection_MU1_A.app[0].messageLength 140B
config *.BusProtection_MU1_A.app[0].sendInterval 250us
config *.BusProtection_MU1_A.app[0].startTime 0.3s
config *.BusProtection_MU1_A.app[0].packetName "\"Bus_SV_1\""
config *.BusProtection_MU1_A.app[0].dscp 56
config *.BusProtection_MU1_A.app[0].verbose true
config *.BusProtection_MU2_A.numApps 1
config *.BusProtection_MU2_A.app[0].typename UdpBasicApp
config *.BusProtection_MU2_A.app[0].localPort 5102
config *.BusProtection_MU2_A.app[0].destAddresses "\"BusProtection_A\""
config *.BusProtection_MU2_A.app[0].destPort 5000
config *.BusProtection_MU2_A.app[0].messageLength 140B
config *.BusProtection_MU2_A.app[0].sendInterval 250us
config *.BusProtection_MU2_A.app[0].startTime 0.4s
config *.BusProtection_MU2_A.app[0].packetName "\"Bus_SV_2\""
config *.BusProtection_MU2_A.app[0].dscp 56
config *.BusProtection_MU2_A.app[0].verbose true
config *.BusProtection_MU3_A.numApps 1
config *.BusProtection_MU3_A.app[0].typename UdpBasicApp
config *.BusProtection_MU3_A.app[0].localPort 5103
config *.BusProtection_MU3_A.app[0].destAddresses "\"BusProtection_A\""
config *.BusProtection_MU3_A.app[0].destPort 5000
config *.BusProtection_MU3_A.app[0].messageLength 140B
config *.BusProtection_MU3_A.app[0].sendInterval 250us
config *.BusProtection_MU3_A.app[0].startTime 0.5s
config *.BusProtection_MU3_A.app[0].packetName "\"Bus_SV_3\""
config *.BusProtection_MU3_A.app[0].dscp 56
config *.BusProtection_MU3_A.app[0].verbose true
config *.BusProtection_B.numApps 1
config *.BusProtection_B.app[0].typename UdpSink
config *.BusProtection_B.app[0].localPort 5000
config *.BusProtection_B.app[0].verbose true
config *.BusProtection_MU1_B.numApps 1
config *.BusProtection_MU1_B.app[0].typename UdpBasicApp
config *.BusProtection_MU1_B.app[0].localPort 5101
config *.BusProtection_MU1_B.app[0].destAddresses "\"BusProtection_B\""
config *.BusProtection_MU1_B.app[0].destPort 5000
config *.BusProtection_MU1_B.app[0].messageLength 140B
config *.BusProtection_MU1_B.app[0].sendInterval 250us
config *.BusProtection_MU1_B.app[0].startTime 0.3s
config *.BusProtection_MU1_B.app[0].packetName "\"Bus_SV_1\""
config *.BusProtection_MU1_B.app[0].dscp 56
config *.BusProtection_MU1_B.app[0].verbose true
config *.BusProtection_MU2_B.numApps 1
config *.BusProtection_MU2_B.app[0].typename UdpBasicApp
config *.BusProtection_MU2_B.app[0].localPort 5102
config *.BusProtection_MU2_B.app[0].destAddresses "\"BusProtection_B\""
config *.BusProtection_MU2_B.app[0].destPort 5000
config *.BusProtection_MU2_B.app[0].messageLength 140B
config *.BusProtection_MU2_B.app[0].sendInterval 250us
config *.BusProtection_MU2_B.app[0].startTime 0.4s
config *.BusProtection_MU2_B.app[0].packetName "\"Bus_SV_2\""
config *.BusProtection_MU2_B.app[0].dscp 56
config *.BusProtection_MU2_B.app[0].verbose true
config *.BusProtection_MU3_B.numApps 1
config *.BusProtection_MU3_B.app[0].typename UdpBasicApp
config *.BusProtection_MU3_B.app[0].localPort 5103
config *.BusProtection_MU3_B.app[0].destAddresses "\"BusProtection_B\""
config *.BusProtection_MU3_B.app[0].destPort 5000
config *.BusProtection_MU3_B.app[0].messageLength 140B
config *.BusProtection_MU3_B.app[0].sendInterval 250us
config *.BusProtection_MU3_B.app[0].startTime 0.5s
config *.BusProtection_MU3_B.app[0].packetName "\"Bus_SV_3\""
config *.BusProtection_MU3_B.app[0].dscp 56
config *.BusProtection_MU3_B.app[0].verbose true
config *.Camera*_A.numApps 2
config *.Camera*_A.app[0].typename UdpBasicApp
config *.Camera*_A.app[0].destAddresses "\"MonitoringCenter_A\""
config *.Camera*_A.app[0].destPort 6000
config *.Camera*_A.app[0].messageLength 1500B
config *.Camera*_A.app[0].sendInterval 33.33ms
config *.Camera*_A.app[0].startTime "uniform(0.5s, 1s)"
config *.Camera*_A.app[0].packetName "\"Video_Stream\""
config *.Camera*_A.app[0].dscp 0
config *.Camera*_A.app[0].verbose true
config *.Camera*_A.app[1].typename UdpBasicApp
config *.Camera*_A.app[1].localPort 6100
config *.Camera*_A.app[1].destAddresses "\"MonitoringCenter_Main\""
config *.Camera*_A.app[1].destPort 6000
config *.Camera*_A.app[1].messageLength 1500B
config *.Camera*_A.app[1].sendInterval 33.33ms
config *.Camera*_A.app[1].startTime "uniform(0.5s, 1s)"
config *.Camera*_A.app[1].packetName "\"Video_Stream_Main\""
config *.Camera*_A.app[1].dscp 0
config *.Camera*_A.app[1].verbose true
config *.Camera*_B.numApps 2
config *.Camera*_B.app[0].typename UdpBasicApp
config *.Camera*_B.app[0].destAddresses "\"MonitoringCenter_B\""
config *.Camera*_B.app[0].destPort 6000
config *.Camera*_B.app[0].messageLength 1500B
config *.Camera*_B.app[0].sendInterval 33.33ms
config *.Camera*_B.app[0].startTime "uniform(0.5s, 1s)"
config *.Camera*_B.app[0].packetName "\"Video_Stream\""
config *.Camera*_B.app[0].dscp 0
config *.Camera*_B.app[0].verbose true
config *.Camera*_B.app[1].typename UdpBasicApp
config *.Camera*_B.app[1].localPort 6100
config *.Camera*_B.app[1].destAddresses "\"MonitoringCenter_Main\""
config *.Camera*_B.app[1].destPort 6000
config *.Camera*_B.app[1].messageLength 1500B
config *.Camera*_B.app[1].sendInterval 33.33ms
config *.Camera*_B.app[1].startTime "uniform(0.5s, 1s)"
config *.Camera*_B.app[1].packetName "\"Video_Stream_Main\""
config *.Camera*_B.app[1].dscp 0
config *.Camera*_B.app[1].verbose true
config *.MonitoringCenter_Main.numApps 2
config *.MonitoringCenter_Main.app[0].typename UdpSink
config *.MonitoringCenter_Main.app[0].localPort 6000
config *.MonitoringCenter_Main.app[0].verbose true
config *.MonitoringCenter_Main.app[1].typename UdpSink
config *.MonitoringCenter_Main.app[1].localPort 9002
config *.MonitoringCenter_Main.app[1].verbose true
config *.VoIP1_A.numApps 1
config *.VoIP1_A.app[0].typename UdpBasicApp
config *.VoIP1_A.app[0].localPort 7001
config *.VoIP1_A.app[0].destAddresses "\"MonitoringCenter_A\""
config *.VoIP1_A.app[0].destPort 7101
config *.VoIP1_A.app[0].messageLength 200B
config *.VoIP1_A.app[0].sendInterval 20ms
config *.VoIP1_A.app[0].startTime 0.6s
config *.VoIP1_A.app[0].packetName "\"VoIP_Stream\""
config *.VoIP1_A.app[0].dscp 40
config *.VoIP1_A.app[0].verbose true
config *.VoIP2_A.numApps 1
config *.VoIP2_A.app[0].typename UdpBasicApp
config *.VoIP2_A.app[0].localPort 7002
config *.VoIP2_A.app[0].destAddresses "\"MonitoringCenter_A\""
config *.VoIP2_A.app[0].destPort 7102
config *.VoIP2_A.app[0].messageLength 200B
config *.VoIP2_A.app[0].sendInterval 20ms
config *.VoIP2_A.app[0].startTime 0.7s
config *.VoIP2_A.app[0].packetName "\"VoIP_Stream\""
config *.VoIP2_A.app[0].dscp 40
config *.VoIP2_A.app[0].verbose true
config *.VoIP1_B.numApps 1
config *.VoIP1_B.app[0].typename UdpBasicApp
config *.VoIP1_B.app[0].localPort 8001
config *.VoIP1_B.app[0].destAddresses "\"MonitoringCenter_B\""
config *.VoIP1_B.app[0].destPort 7101
config *.VoIP1_B.app[0].messageLength 200B
config *.VoIP1_B.app[0].sendInterval 20ms
config *.VoIP1_B.app[0].startTime 0.8s
config *.VoIP1_B.app[0].packetName "\"VoIP_Stream\""
config *.VoIP1_B.app[0].dscp 40
config *.VoIP1_B.app[0].verbose true
config *.VoIP2_B.numApps 1
config *.VoIP2_B.app[0].typename UdpBasicApp
config *.VoIP2_B.app[0].localPort 8002
config *.VoIP2_B.app[0].destAddresses "\"MonitoringCenter_B\""
config *.VoIP2_B.app[0].destPort 7102
config *.VoIP2_B.app[0].messageLength 200B
config *.VoIP2_B.app[0].sendInterval 20ms
config *.VoIP2_B.app[0].startTime 0.9s
config *.VoIP2_B.app[0].packetName "\"VoIP_Stream\""
config *.VoIP2_B.app[0].dscp 40
config *.VoIP2_B.app[0].verbose true
config *.MonitoringCenter_A.numApps 5
config *.MonitoringCenter_A.app[0].typename UdpSink
config *.MonitoringCenter_A.app[0].localPort 6000
config *.MonitoringCenter_A.app[0].verbose true
config *.MonitoringCenter_A.app[1].typename UdpBasicApp
config *.MonitoringCenter_A.app[1].localPort 9001
config *.MonitoringCenter_A.app[1].destAddresses "\"MonitoringCenter_Main\""
config *.MonitoringCenter_A.app[1].destPort 9002
config *.MonitoringCenter_A.app[1].messageLength "normal(1500B, 500B)"
config *.MonitoringCenter_A.app[1].sendInterval exponential(0.1s)
config *.MonitoringCenter_A.app[1].startTime 1s
config *.MonitoringCenter_A.app[1].packetName "\"OM_Data_Burst_A\""
config *.MonitoringCenter_A.app[1].dscp 0
config *.MonitoringCenter_A.app[1].verbose true
config *.MonitoringCenter_A.app[2].typename UdpSink
config *.MonitoringCenter_A.app[2].localPort 9004
config *.MonitoringCenter_A.app[2].verbose true
config *.MonitoringCenter_A.app[3].typename UdpSink
config *.MonitoringCenter_A.app[3].localPort 7101
config *.MonitoringCenter_A.app[3].verbose true
config *.MonitoringCenter_A.app[4].typename UdpSink
config *.MonitoringCenter_A.app[4].localPort 7102
config *.MonitoringCenter_A.app[4].verbose true
config *.MonitoringCenter_B.numApps 5
config *.MonitoringCenter_B.app[0].typename UdpSink
config *.MonitoringCenter_B.app[0].localPort 6000
config *.MonitoringCenter_B.app[0].verbose true
config *.MonitoringCenter_B.app[1].typename UdpSink
config *.MonitoringCenter_B.app[1].localPort 9002
config *.MonitoringCenter_B.app[1].verbose true
config *.MonitoringCenter_B.app[2].typename UdpBasicApp
config *.MonitoringCenter_B.app[2].localPort 9003
config *.MonitoringCenter_B.app[2].destAddresses "\"MonitoringCenter_Main\""
config *.MonitoringCenter_B.app[2].destPort 9004
config *.MonitoringCenter_B.app[2].messageLength "normal(1500B, 500B)"
config *.MonitoringCenter_B.app[2].sendInterval exponential(0.1s)
config *.MonitoringCenter_B.app[2].startTime 1.2s
config *.MonitoringCenter_B.app[2].packetName "\"OM_Data_Burst_B\""
config *.MonitoringCenter_B.app[2].dscp 0
config *.MonitoringCenter_B.app[2].verbose true
config *.MonitoringCenter_B.app[3].typename UdpSink
config *.MonitoringCenter_B.app[3].localPort 7101
config *.MonitoringCenter_B.app[3].verbose true
config *.MonitoringCenter_B.app[4].typename UdpSink
config *.MonitoringCenter_B.app[4].localPort 7102
config *.MonitoringCenter_B.app[4].verbose true
config **.app[*].source.packetSentSignal true
config **.app[*].sink.packetReceivedSignal true
config **.app[*].sink.endToEndDelayStatistic.record true
config **.app[*].sink.delayHistogram.record true
config **.app[*].sink.numReceivedStatistic.record true
config **.app[*].sink.throughputStatistic.record true
config **.app[*].sink.jitterStatistic.record true
config **.app[*].sink.jitterHistogram.record true
config *.VoIP*_A.app[*].sink.delayThreshold 150ms
config *.VoIP*_A.app[*].sink.jitterThreshold 30ms
config *.VoIP*_B.app[*].sink.delayThreshold 150ms
config *.VoIP*_B.app[*].sink.jitterThreshold 30ms
config *.MU_A.app[0].sink.delayThreshold 30ms
config *.MU_A.app[0].sink.jitterThreshold 250us
config *.BusProtection_MU*_A.app[*].sink.delayThreshold 30ms
config *.BusProtection_MU*_A.app[*].sink.jitterThreshold 250us
config *.*_A.displayString "\"i=abstract/pc\""
config *.*_B.displayString "\"i=abstract/pc\""
config *.borderGateway*.displayString "\"i=misc/router\""
config *.otnDevice.displayString "\"i=misc/router_vs\""
config *.MU_A.displayString "\"i=block/switch,green\""
config *.Protection_A.displayString "\"i=block/computer,red\""
config *.IT_A.displayString "\"i=block/plug,blue\""
config *.Protection_B.displayString "\"i=block/computer,red\""
config *.MonitoringCenter_A.displayString "\"i=block/server,blue\""
config *.MonitoringCenter_B.displayString "\"i=block/server,blue\""
config *.MonitoringCenter_Main.displayString "\"i=block/server,cyan\""
config *.BusProtection_A.displayString "\"i=block/computer,orange\""
config *.BusProtection_B.displayString "\"i=block/computer,orange\""
config *.BusProtection_MU*_A.displayString "\"i=block/switch,yellow\""
config *.BusProtection_MU*_B.displayString "\"i=block/switch,yellow\""
config *.Camera*_A.displayString "\"i=device/camera,gray\""
config *.Camera*_B.displayString "\"i=device/camera,gray\""
config *.VoIP1_A.displayString "\"i=device/phone,gray\""
config *.VoIP2_A.displayString "\"i=device/phone,gray\""
config *.VoIP1_B.displayString "\"i=device/phone,gray\""
config *.VoIP2_B.displayString "\"i=device/phone,gray\""
config **.channel.displayString "\"ls=black,1\""

vector 0 SmartSubstationTopology.MU_A.udp passedUpPk:vector(count) ETV
attr interpolationmode none
attr recordingmode vector(count)
attr source packetSentToUpper
attr title "packets passed up, count"
vector 1 SmartSubstationTopology.MU_A.udp droppedPkWrongPort:vector(count) ETV
attr interpolationmode none
attr recordingmode vector(count)
attr source packetDropReasonIsNoPortFound(packetDropped)
attr title "packets dropped (wrong port), count"
vector 2 SmartSubstationTopology.MU_A.udp droppedPkBadChecksum:vector(count) ETV
attr interpolationmode none
attr recordingmode vector(count)
attr source packetDropReasonIsIncorrectlyReceived(packetDropped)
attr title "packets dropped (checksum error), count"
vector 3 SmartSubstationTopology.Protection_A.udp passedUpPk:vector(count) ETV
attr interpolationmode none
attr recordingmode vector(count)
attr source packetSentToUpper
attr title "packets passed up, count"
vector 4 SmartSubstationTopology.Protection_A.udp droppedPkWrongPort:vector(count) ETV
attr interpolationmode none
attr recordingmode vector(count)
attr source packetDropReasonIsNoPortFound(packetDropped)
attr title "packets dropped (wrong port), count"
vector 5 SmartSubstationTopology.Protection_A.udp droppedPkBadChecksum:vector(count) ETV
attr interpolationmode none
attr recordingmode vector(count)
attr source packetDropReasonIsIncorrectlyReceived(packetDropped)
attr title "packets dropped (checksum error), count"
vector 6 SmartSubstationTopology.IT_A.udp passedUpPk:vector(count) ETV
attr interpolationmode none
attr recordingmode vector(count)
attr source packetSentToUpper
attr title "packets passed up, count"
vector 7 SmartSubstationTopology.IT_A.udp droppedPkWrongPort:vector(count) ETV
attr interpolationmode none
attr recordingmode vector(count)
attr source packetDropReasonIsNoPortFound(packetDropped)
attr title "packets dropped (wrong port), count"
vector 8 SmartSubstationTopology.IT_A.udp droppedPkBadChecksum:vector(count) ETV
attr interpolationmode none
attr recordingmode vector(count)
attr source packetDropReasonIsIncorrectlyReceived(packetDropped)
attr title "packets dropped (checksum error), count"
vector 9 SmartSubstationTopology.BusProtection_MU1_A.udp passedUpPk:vector(count) ETV
attr interpolationmode none
attr recordingmode vector(count)
attr source packetSentToUpper
attr title "packets passed up, count"
vector 10 SmartSubstationTopology.BusProtection_MU1_A.udp droppedPkWrongPort:vector(count) ETV
attr interpolationmode none
attr recordingmode vector(count)
attr source packetDropReasonIsNoPortFound(packetDropped)
attr title "packets dropped (wrong port), count"
vector 11 SmartSubstationTopology.BusProtection_MU1_A.udp droppedPkBadChecksum:vector(count) ETV
attr interpolationmode none
attr recordingmode vector(count)
attr source packetDropReasonIsIncorrectlyReceived(packetDropped)
attr title "packets dropped (checksum error), count"
vector 12 SmartSubstationTopology.BusProtection_MU2_A.udp passedUpPk:vector(count) ETV
attr interpolationmode none
attr recordingmode vector(count)
attr source packetSentToUpper
attr title "packets passed up, count"
vector 13 SmartSubstationTopology.BusProtection_MU2_A.udp droppedPkWrongPort:vector(count) ETV
attr interpolationmode none
attr recordingmode vector(count)
attr source packetDropReasonIsNoPortFound(packetDropped)
attr title "packets dropped (wrong port), count"
vector 14 SmartSubstationTopology.BusProtection_MU2_A.udp droppedPkBadChecksum:vector(count) ETV
attr interpolationmode none
attr recordingmode vector(count)
attr source packetDropReasonIsIncorrectlyReceived(packetDropped)
attr title "packets dropped (checksum error), count"
vector 15 SmartSubstationTopology.BusProtection_MU3_A.udp passedUpPk:vector(count) ETV
attr interpolationmode none
attr recordingmode vector(count)
attr source packetSentToUpper
attr title "packets passed up, count"
vector 16 SmartSubstationTopology.BusProtection_MU3_A.udp droppedPkWrongPort:vector(count) ETV
attr interpolationmode none
attr recordingmode vector(count)
attr source packetDropReasonIsNoPortFound(packetDropped)
attr title "packets dropped (wrong port), count"
vector 17 SmartSubstationTopology.BusProtection_MU3_A.udp droppedPkBadChecksum:vector(count) ETV
attr interpolationmode none
attr recordingmode vector(count)
attr source packetDropReasonIsIncorrectlyReceived(packetDropped)
attr title "packets dropped (checksum error), count"
vector 18 SmartSubstationTopology.BusProtection_A.udp passedUpPk:vector(count) ETV
attr interpolationmode none
attr recordingmode vector(count)
attr source packetSentToUpper
attr title "packets passed up, count"
vector 19 SmartSubstationTopology.BusProtection_A.udp droppedPkWrongPort:vector(count) ETV
attr interpolationmode none
attr recordingmode vector(count)
attr source packetDropReasonIsNoPortFound(packetDropped)
attr title "packets dropped (wrong port), count"
vector 20 SmartSubstationTopology.BusProtection_A.udp droppedPkBadChecksum:vector(count) ETV
attr interpolationmode none
attr recordingmode vector(count)
attr source packetDropReasonIsIncorrectlyReceived(packetDropped)
attr title "packets dropped (checksum error), count"
vector 21 SmartSubstationTopology.Camera1_A.udp passedUpPk:vector(count) ETV
attr interpolationmode none
attr recordingmode vector(count)
attr source packetSentToUpper
attr title "packets passed up, count"
vector 22 SmartSubstationTopology.Camera1_A.udp droppedPkWrongPort:vector(count) ETV
attr interpolationmode none
attr recordingmode vector(count)
attr source packetDropReasonIsNoPortFound(packetDropped)
attr title "packets dropped (wrong port), count"
vector 23 SmartSubstationTopology.Camera1_A.udp droppedPkBadChecksum:vector(count) ETV
attr interpolationmode none
attr recordingmode vector(count)
attr source packetDropReasonIsIncorrectlyReceived(packetDropped)
attr title "packets dropped (checksum error), count"
vector 24 SmartSubstationTopology.Camera2_A.udp passedUpPk:vector(count) ETV
attr interpolationmode none
attr recordingmode vector(count)
attr source packetSentToUpper
attr title "packets passed up, count"
vector 25 SmartSubstationTopology.Camera2_A.udp droppedPkWrongPort:vector(count) ETV
attr interpolationmode none
attr recordingmode vector(count)
attr source packetDropReasonIsNoPortFound(packetDropped)
attr title "packets dropped (wrong port), count"
vector 26 SmartSubstationTopology.Camera2_A.udp droppedPkBadChecksum:vector(count) ETV
attr interpolationmode none
attr recordingmode vector(count)
attr source packetDropReasonIsIncorrectlyReceived(packetDropped)
attr title "packets dropped (checksum error), count"
vector 27 SmartSubstationTopology.Camera3_A.udp passedUpPk:vector(count) ETV
attr interpolationmode none
attr recordingmode vector(count)
attr source packetSentToUpper
attr title "packets passed up, count"
vector 28 SmartSubstationTopology.Camera3_A.udp droppedPkWrongPort:vector(count) ETV
attr interpolationmode none
attr recordingmode vector(count)
attr source packetDropReasonIsNoPortFound(packetDropped)
attr title "packets dropped (wrong port), count"
vector 29 SmartSubstationTopology.Camera3_A.udp droppedPkBadChecksum:vector(count) ETV
attr interpolationmode none
attr recordingmode vector(count)
attr source packetDropReasonIsIncorrectlyReceived(packetDropped)
attr title "packets dropped (checksum error), count"
vector 30 SmartSubstationTopology.Camera4_A.udp passedUpPk:vector(count) ETV
attr interpolationmode none
attr recordingmode vector(count)
attr source packetSentToUpper
attr title "packets passed up, count"
vector 31 SmartSubstationTopology.Camera4_A.udp droppedPkWrongPort:vector(count) ETV
attr interpolationmode none
attr recordingmode vector(count)
attr source packetDropReasonIsNoPortFound(packetDropped)
attr title "packets dropped (wrong port), count"
vector 32 SmartSubstationTopology.Camera4_A.udp droppedPkBadChecksum:vector(count) ETV
attr interpolationmode none
attr recordingmode vector(count)
attr source packetDropReasonIsIncorrectlyReceived(packetDropped)
attr title "packets dropped (checksum error), count"
vector 33 SmartSubstationTopology.Camera5_A.udp passedUpPk:vector(count) ETV
attr interpolationmode none
attr recordingmode vector(count)
attr source packetSentToUpper
attr title "packets passed up, count"
vector 34 SmartSubstationTopology.Camera5_A.udp droppedPkWrongPort:vector(count) ETV
attr interpolationmode none
attr recordingmode vector(count)
attr source packetDropReasonIsNoPortFound(packetDropped)
attr title "packets dropped (wrong port), count"
vector 35 SmartSubstationTopology.Camera5_A.udp droppedPkBadChecksum:vector(count) ETV
attr interpolationmode none
attr recordingmode vector(count)
attr source packetDropReasonIsIncorrectlyReceived(packetDropped)
attr title "packets dropped (checksum error), count"
vector 36 SmartSubstationTopology.Camera6_A.udp passedUpPk:vector(count) ETV
attr interpolationmode none
attr recordingmode vector(count)
attr source packetSentToUpper
attr title "packets passed up, count"
vector 37 SmartSubstationTopology.Camera6_A.udp droppedPkWrongPort:vector(count) ETV
attr interpolationmode none
attr recordingmode vector(count)
attr source packetDropReasonIsNoPortFound(packetDropped)
attr title "packets dropped (wrong port), count"
vector 38 SmartSubstationTopology.Camera6_A.udp droppedPkBadChecksum:vector(count) ETV
attr interpolationmode none
attr recordingmode vector(count)
attr source packetDropReasonIsIncorrectlyReceived(packetDropped)
attr title "packets dropped (checksum error), count"
vector 39 SmartSubstationTopology.Camera7_A.udp passedUpPk:vector(count) ETV
attr interpolationmode none
attr recordingmode vector(count)
attr source packetSentToUpper
attr title "packets passed up, count"
vector 40 SmartSubstationTopology.Camera7_A.udp droppedPkWrongPort:vector(count) ETV
attr interpolationmode none
attr recordingmode vector(count)
attr source packetDropReasonIsNoPortFound(packetDropped)
attr title "packets dropped (wrong port), count"
vector 41 SmartSubstationTopology.Camera7_A.udp droppedPkBadChecksum:vector(count) ETV
attr interpolationmode none
attr recordingmode vector(count)
attr source packetDropReasonIsIncorrectlyReceived(packetDropped)
attr title "packets dropped (checksum error), count"
vector 42 SmartSubstationTopology.Camera8_A.udp passedUpPk:vector(count) ETV
attr interpolationmode none
attr recordingmode vector(count)
attr source packetSentToUpper
attr title "packets passed up, count"
vector 43 SmartSubstationTopology.Camera8_A.udp droppedPkWrongPort:vector(count) ETV
attr interpolationmode none
attr recordingmode vector(count)
attr source packetDropReasonIsNoPortFound(packetDropped)
attr title "packets dropped (wrong port), count"
vector 44 SmartSubstationTopology.Camera8_A.udp droppedPkBadChecksum:vector(count) ETV
attr interpolationmode none
attr recordingmode vector(count)
attr source packetDropReasonIsIncorrectlyReceived(packetDropped)
attr title "packets dropped (checksum error), count"
vector 45 SmartSubstationTopology.Camera9_A.udp passedUpPk:vector(count) ETV
attr interpolationmode none
attr recordingmode vector(count)
attr source packetSentToUpper
attr title "packets passed up, count"
vector 46 SmartSubstationTopology.Camera9_A.udp droppedPkWrongPort:vector(count) ETV
attr interpolationmode none
attr recordingmode vector(count)
attr source packetDropReasonIsNoPortFound(packetDropped)
attr title "packets dropped (wrong port), count"
vector 47 SmartSubstationTopology.Camera9_A.udp droppedPkBadChecksum:vector(count) ETV
attr interpolationmode none
attr recordingmode vector(count)
attr source packetDropReasonIsIncorrectlyReceived(packetDropped)
attr title "packets dropped (checksum error), count"
vector 48 SmartSubstationTopology.Camera10_A.udp passedUpPk:vector(count) ETV
attr interpolationmode none
attr recordingmode vector(count)
attr source packetSentToUpper
attr title "packets passed up, count"
vector 49 SmartSubstationTopology.Camera10_A.udp droppedPkWrongPort:vector(count) ETV
attr interpolationmode none
attr recordingmode vector(count)
attr source packetDropReasonIsNoPortFound(packetDropped)
attr title "packets dropped (wrong port), count"
vector 50 SmartSubstationTopology.Camera10_A.udp droppedPkBadChecksum:vector(count) ETV
attr interpolationmode none
attr recordingmode vector(count)
attr source packetDropReasonIsIncorrectlyReceived(packetDropped)
attr title "packets dropped (checksum error), count"
vector 51 SmartSubstationTopology.VoIP1_A.udp passedUpPk:vector(count) ETV
attr interpolationmode none
attr recordingmode vector(count)
attr source packetSentToUpper
attr title "packets passed up, count"
vector 52 SmartSubstationTopology.VoIP1_A.udp droppedPkWrongPort:vector(count) ETV
attr interpolationmode none
attr recordingmode vector(count)
attr source packetDropReasonIsNoPortFound(packetDropped)
attr title "packets dropped (wrong port), count"
vector 53 SmartSubstationTopology.VoIP1_A.udp droppedPkBadChecksum:vector(count) ETV
attr interpolationmode none
attr recordingmode vector(count)
attr source packetDropReasonIsIncorrectlyReceived(packetDropped)
attr title "packets dropped (checksum error), count"
vector 54 SmartSubstationTopology.VoIP2_A.udp passedUpPk:vector(count) ETV
attr interpolationmode none
attr recordingmode vector(count)
attr source packetSentToUpper
attr title "packets passed up, count"
vector 55 SmartSubstationTopology.VoIP2_A.udp droppedPkWrongPort:vector(count) ETV
attr interpolationmode none
attr recordingmode vector(count)
attr source packetDropReasonIsNoPortFound(packetDropped)
attr title "packets dropped (wrong port), count"
vector 56 SmartSubstationTopology.VoIP2_A.udp droppedPkBadChecksum:vector(count) ETV
attr interpolationmode none
attr recordingmode vector(count)
attr source packetDropReasonIsIncorrectlyReceived(packetDropped)
attr title "packets dropped (checksum error), count"
vector 57 SmartSubstationTopology.MonitoringCenter_A.udp passedUpPk:vector(count) ETV
attr interpolationmode none
attr recordingmode vector(count)
attr source packetSentToUpper
attr title "packets passed up, count"
vector 58 SmartSubstationTopology.MonitoringCenter_A.udp droppedPkWrongPort:vector(count) ETV
attr interpolationmode none
attr recordingmode vector(count)
attr source packetDropReasonIsNoPortFound(packetDropped)
attr title "packets dropped (wrong port), count"
vector 59 SmartSubstationTopology.MonitoringCenter_A.udp droppedPkBadChecksum:vector(count) ETV
attr interpolationmode none
attr recordingmode vector(count)
attr source packetDropReasonIsIncorrectlyReceived(packetDropped)
attr title "packets dropped (checksum error), count"
vector 60 SmartSubstationTopology.MU_B.udp passedUpPk:vector(count) ETV
attr interpolationmode none
attr recordingmode vector(count)
attr source packetSentToUpper
attr title "packets passed up, count"
vector 61 SmartSubstationTopology.MU_B.udp droppedPkWrongPort:vector(count) ETV
attr interpolationmode none
attr recordingmode vector(count)
attr source packetDropReasonIsNoPortFound(packetDropped)
attr title "packets dropped (wrong port), count"
vector 62 SmartSubstationTopology.MU_B.udp droppedPkBadChecksum:vector(count) ETV
attr interpolationmode none
attr recordingmode vector(count)
attr source packetDropReasonIsIncorrectlyReceived(packetDropped)
attr title "packets dropped (checksum error), count"
vector 63 SmartSubstationTopology.Protection_B.udp passedUpPk:vector(count) ETV
attr interpolationmode none
attr recordingmode vector(count)
attr source packetSentToUpper
attr title "packets passed up, count"
vector 64 SmartSubstationTopology.Protection_B.udp droppedPkWrongPort:vector(count) ETV
attr interpolationmode none
attr recordingmode vector(count)
attr source packetDropReasonIsNoPortFound(packetDropped)
attr title "packets dropped (wrong port), count"
vector 65 SmartSubstationTopology.Protection_B.udp droppedPkBadChecksum:vector(count) ETV
attr interpolationmode none
attr recordingmode vector(count)
attr source packetDropReasonIsIncorrectlyReceived(packetDropped)
attr title "packets dropped (checksum error), count"
vector 66 SmartSubstationTopology.IT_B.udp passedUpPk:vector(count) ETV
attr interpolationmode none
attr recordingmode vector(count)
attr source packetSentToUpper
attr title "packets passed up, count"
vector 67 SmartSubstationTopology.IT_B.udp droppedPkWrongPort:vector(count) ETV
attr interpolationmode none
attr recordingmode vector(count)
attr source packetDropReasonIsNoPortFound(packetDropped)
attr title "packets dropped (wrong port), count"
vector 68 SmartSubstationTopology.IT_B.udp droppedPkBadChecksum:vector(count) ETV
attr interpolationmode none
attr recordingmode vector(count)
attr source packetDropReasonIsIncorrectlyReceived(packetDropped)
attr title "packets dropped (checksum error), count"
vector 69 SmartSubstationTopology.BusProtection_MU1_B.udp passedUpPk:vector(count) ETV
attr interpolationmode none
attr recordingmode vector(count)
attr source packetSentToUpper
attr title "packets passed up, count"
vector 70 SmartSubstationTopology.BusProtection_MU1_B.udp droppedPkWrongPort:vector(count) ETV
attr interpolationmode none
attr recordingmode vector(count)
attr source packetDropReasonIsNoPortFound(packetDropped)
attr title "packets dropped (wrong port), count"
vector 71 SmartSubstationTopology.BusProtection_MU1_B.udp droppedPkBadChecksum:vector(count) ETV
attr interpolationmode none
attr recordingmode vector(count)
attr source packetDropReasonIsIncorrectlyReceived(packetDropped)
attr title "packets dropped (checksum error), count"
vector 72 SmartSubstationTopology.BusProtection_MU2_B.udp passedUpPk:vector(count) ETV
attr interpolationmode none
attr recordingmode vector(count)
attr source packetSentToUpper
attr title "packets passed up, count"
vector 73 SmartSubstationTopology.BusProtection_MU2_B.udp droppedPkWrongPort:vector(count) ETV
attr interpolationmode none
attr recordingmode vector(count)
attr source packetDropReasonIsNoPortFound(packetDropped)
attr title "packets dropped (wrong port), count"
vector 74 SmartSubstationTopology.BusProtection_MU2_B.udp droppedPkBadChecksum:vector(count) ETV
attr interpolationmode none
attr recordingmode vector(count)
attr source packetDropReasonIsIncorrectlyReceived(packetDropped)
attr title "packets dropped (checksum error), count"
vector 75 SmartSubstationTopology.BusProtection_MU3_B.udp passedUpPk:vector(count) ETV
attr interpolationmode none
attr recordingmode vector(count)
attr source packetSentToUpper
attr title "packets passed up, count"
vector 76 SmartSubstationTopology.BusProtection_MU3_B.udp droppedPkWrongPort:vector(count) ETV
attr interpolationmode none
attr recordingmode vector(count)
attr source packetDropReasonIsNoPortFound(packetDropped)
attr title "packets dropped (wrong port), count"
vector 77 SmartSubstationTopology.BusProtection_MU3_B.udp droppedPkBadChecksum:vector(count) ETV
attr interpolationmode none
attr recordingmode vector(count)
attr source packetDropReasonIsIncorrectlyReceived(packetDropped)
attr title "packets dropped (checksum error), count"
vector 78 SmartSubstationTopology.BusProtection_B.udp passedUpPk:vector(count) ETV
attr interpolationmode none
attr recordingmode vector(count)
attr source packetSentToUpper
attr title "packets passed up, count"
vector 79 SmartSubstationTopology.BusProtection_B.udp droppedPkWrongPort:vector(count) ETV
attr interpolationmode none
attr recordingmode vector(count)
attr source packetDropReasonIsNoPortFound(packetDropped)
attr title "packets dropped (wrong port), count"
vector 80 SmartSubstationTopology.BusProtection_B.udp droppedPkBadChecksum:vector(count) ETV
attr interpolationmode none
attr recordingmode vector(count)
attr source packetDropReasonIsIncorrectlyReceived(packetDropped)
attr title "packets dropped (checksum error), count"
vector 81 SmartSubstationTopology.Camera1_B.udp passedUpPk:vector(count) ETV
attr interpolationmode none
attr recordingmode vector(count)
attr source packetSentToUpper
attr title "packets passed up, count"
vector 82 SmartSubstationTopology.Camera1_B.udp droppedPkWrongPort:vector(count) ETV
attr interpolationmode none
attr recordingmode vector(count)
attr source packetDropReasonIsNoPortFound(packetDropped)
attr title "packets dropped (wrong port), count"
vector 83 SmartSubstationTopology.Camera1_B.udp droppedPkBadChecksum:vector(count) ETV
attr interpolationmode none
attr recordingmode vector(count)
attr source packetDropReasonIsIncorrectlyReceived(packetDropped)
attr title "packets dropped (checksum error), count"
vector 84 SmartSubstationTopology.Camera2_B.udp passedUpPk:vector(count) ETV
attr interpolationmode none
attr recordingmode vector(count)
attr source packetSentToUpper
attr title "packets passed up, count"
vector 85 SmartSubstationTopology.Camera2_B.udp droppedPkWrongPort:vector(count) ETV
attr interpolationmode none
attr recordingmode vector(count)
attr source packetDropReasonIsNoPortFound(packetDropped)
attr title "packets dropped (wrong port), count"
vector 86 SmartSubstationTopology.Camera2_B.udp droppedPkBadChecksum:vector(count) ETV
attr interpolationmode none
attr recordingmode vector(count)
attr source packetDropReasonIsIncorrectlyReceived(packetDropped)
attr title "packets dropped (checksum error), count"
vector 87 SmartSubstationTopology.Camera3_B.udp passedUpPk:vector(count) ETV
attr interpolationmode none
attr recordingmode vector(count)
attr source packetSentToUpper
attr title "packets passed up, count"
vector 88 SmartSubstationTopology.Camera3_B.udp droppedPkWrongPort:vector(count) ETV
attr interpolationmode none
attr recordingmode vector(count)
attr source packetDropReasonIsNoPortFound(packetDropped)
attr title "packets dropped (wrong port), count"
vector 89 SmartSubstationTopology.Camera3_B.udp droppedPkBadChecksum:vector(count) ETV
attr interpolationmode none
attr recordingmode vector(count)
attr source packetDropReasonIsIncorrectlyReceived(packetDropped)
attr title "packets dropped (checksum error), count"
vector 90 SmartSubstationTopology.Camera4_B.udp passedUpPk:vector(count) ETV
attr interpolationmode none
attr recordingmode vector(count)
attr source packetSentToUpper
attr title "packets passed up, count"
vector 91 SmartSubstationTopology.Camera4_B.udp droppedPkWrongPort:vector(count) ETV
attr interpolationmode none
attr recordingmode vector(count)
attr source packetDropReasonIsNoPortFound(packetDropped)
attr title "packets dropped (wrong port), count"
vector 92 SmartSubstationTopology.Camera4_B.udp droppedPkBadChecksum:vector(count) ETV
attr interpolationmode none
attr recordingmode vector(count)
attr source packetDropReasonIsIncorrectlyReceived(packetDropped)
attr title "packets dropped (checksum error), count"
vector 93 SmartSubstationTopology.Camera5_B.udp passedUpPk:vector(count) ETV
attr interpolationmode none
attr recordingmode vector(count)
attr source packetSentToUpper
attr title "packets passed up, count"
vector 94 SmartSubstationTopology.Camera5_B.udp droppedPkWrongPort:vector(count) ETV
attr interpolationmode none
attr recordingmode vector(count)
attr source packetDropReasonIsNoPortFound(packetDropped)
attr title "packets dropped (wrong port), count"
vector 95 SmartSubstationTopology.Camera5_B.udp droppedPkBadChecksum:vector(count) ETV
attr interpolationmode none
attr recordingmode vector(count)
attr source packetDropReasonIsIncorrectlyReceived(packetDropped)
attr title "packets dropped (checksum error), count"
vector 96 SmartSubstationTopology.Camera6_B.udp passedUpPk:vector(count) ETV
attr interpolationmode none
attr recordingmode vector(count)
attr source packetSentToUpper
attr title "packets passed up, count"
vector 97 SmartSubstationTopology.Camera6_B.udp droppedPkWrongPort:vector(count) ETV
attr interpolationmode none
attr recordingmode vector(count)
attr source packetDropReasonIsNoPortFound(packetDropped)
attr title "packets dropped (wrong port), count"
vector 98 SmartSubstationTopology.Camera6_B.udp droppedPkBadChecksum:vector(count) ETV
attr interpolationmode none
attr recordingmode vector(count)
attr source packetDropReasonIsIncorrectlyReceived(packetDropped)
attr title "packets dropped (checksum error), count"
vector 99 SmartSubstationTopology.Camera7_B.udp passedUpPk:vector(count) ETV
attr interpolationmode none
attr recordingmode vector(count)
attr source packetSentToUpper
attr title "packets passed up, count"
vector 100 SmartSubstationTopology.Camera7_B.udp droppedPkWrongPort:vector(count) ETV
attr interpolationmode none
attr recordingmode vector(count)
attr source packetDropReasonIsNoPortFound(packetDropped)
attr title "packets dropped (wrong port), count"
vector 101 SmartSubstationTopology.Camera7_B.udp droppedPkBadChecksum:vector(count) ETV
attr interpolationmode none
attr recordingmode vector(count)
attr source packetDropReasonIsIncorrectlyReceived(packetDropped)
attr title "packets dropped (checksum error), count"
vector 102 SmartSubstationTopology.Camera8_B.udp passedUpPk:vector(count) ETV
attr interpolationmode none
attr recordingmode vector(count)
attr source packetSentToUpper
attr title "packets passed up, count"
vector 103 SmartSubstationTopology.Camera8_B.udp droppedPkWrongPort:vector(count) ETV
attr interpolationmode none
attr recordingmode vector(count)
attr source packetDropReasonIsNoPortFound(packetDropped)
attr title "packets dropped (wrong port), count"
vector 104 SmartSubstationTopology.Camera8_B.udp droppedPkBadChecksum:vector(count) ETV
attr interpolationmode none
attr recordingmode vector(count)
attr source packetDropReasonIsIncorrectlyReceived(packetDropped)
attr title "packets dropped (checksum error), count"
vector 105 SmartSubstationTopology.Camera9_B.udp passedUpPk:vector(count) ETV
attr interpolationmode none
attr recordingmode vector(count)
attr source packetSentToUpper
attr title "packets passed up, count"
vector 106 SmartSubstationTopology.Camera9_B.udp droppedPkWrongPort:vector(count) ETV
attr interpolationmode none
attr recordingmode vector(count)
attr source packetDropReasonIsNoPortFound(packetDropped)
attr title "packets dropped (wrong port), count"
vector 107 SmartSubstationTopology.Camera9_B.udp droppedPkBadChecksum:vector(count) ETV
attr interpolationmode none
attr recordingmode vector(count)
attr source packetDropReasonIsIncorrectlyReceived(packetDropped)
attr title "packets dropped (checksum error), count"
vector 108 SmartSubstationTopology.Camera10_B.udp passedUpPk:vector(count) ETV
attr interpolationmode none
attr recordingmode vector(count)
attr source packetSentToUpper
attr title "packets passed up, count"
vector 109 SmartSubstationTopology.Camera10_B.udp droppedPkWrongPort:vector(count) ETV
attr interpolationmode none
attr recordingmode vector(count)
attr source packetDropReasonIsNoPortFound(packetDropped)
attr title "packets dropped (wrong port), count"
vector 110 SmartSubstationTopology.Camera10_B.udp droppedPkBadChecksum:vector(count) ETV
attr interpolationmode none
attr recordingmode vector(count)
attr source packetDropReasonIsIncorrectlyReceived(packetDropped)
attr title "packets dropped (checksum error), count"
vector 111 SmartSubstationTopology.VoIP1_B.udp passedUpPk:vector(count) ETV
attr interpolationmode none
attr recordingmode vector(count)
attr source packetSentToUpper
attr title "packets passed up, count"
vector 112 SmartSubstationTopology.VoIP1_B.udp droppedPkWrongPort:vector(count) ETV
attr interpolationmode none
attr recordingmode vector(count)
attr source packetDropReasonIsNoPortFound(packetDropped)
attr title "packets dropped (wrong port), count"
vector 113 SmartSubstationTopology.VoIP1_B.udp droppedPkBadChecksum:vector(count) ETV
attr interpolationmode none
attr recordingmode vector(count)
attr source packetDropReasonIsIncorrectlyReceived(packetDropped)
attr title "packets dropped (checksum error), count"
vector 114 SmartSubstationTopology.VoIP2_B.udp passedUpPk:vector(count) ETV
attr interpolationmode none
attr recordingmode vector(count)
attr source packetSentToUpper
attr title "packets passed up, count"
vector 115 SmartSubstationTopology.VoIP2_B.udp droppedPkWrongPort:vector(count) ETV
attr interpolationmode none
attr recordingmode vector(count)
attr source packetDropReasonIsNoPortFound(packetDropped)
attr title "packets dropped (wrong port), count"
vector 116 SmartSubstationTopology.VoIP2_B.udp droppedPkBadChecksum:vector(count) ETV
attr interpolationmode none
attr recordingmode vector(count)
attr source packetDropReasonIsIncorrectlyReceived(packetDropped)
attr title "packets dropped (checksum error), count"
vector 117 SmartSubstationTopology.MonitoringCenter_B.udp passedUpPk:vector(count) ETV
attr interpolationmode none
attr recordingmode vector(count)
attr source packetSentToUpper
attr title "packets passed up, count"
vector 118 SmartSubstationTopology.MonitoringCenter_B.udp droppedPkWrongPort:vector(count) ETV
attr interpolationmode none
attr recordingmode vector(count)
attr source packetDropReasonIsNoPortFound(packetDropped)
attr title "packets dropped (wrong port), count"
vector 119 SmartSubstationTopology.MonitoringCenter_B.udp droppedPkBadChecksum:vector(count) ETV
attr interpolationmode none
attr recordingmode vector(count)
attr source packetDropReasonIsIncorrectlyReceived(packetDropped)
attr title "packets dropped (checksum error), count"
vector 120 SmartSubstationTopology.MonitoringCenter_Main.udp passedUpPk:vector(count) ETV
attr interpolationmode none
attr recordingmode vector(count)
attr source packetSentToUpper
attr title "packets passed up, count"
vector 121 SmartSubstationTopology.MonitoringCenter_Main.udp droppedPkWrongPort:vector(count) ETV
attr interpolationmode none
attr recordingmode vector(count)
attr source packetDropReasonIsNoPortFound(packetDropped)
attr title "packets dropped (wrong port), count"
vector 122 SmartSubstationTopology.MonitoringCenter_Main.udp droppedPkBadChecksum:vector(count) ETV
attr interpolationmode none
attr recordingmode vector(count)
attr source packetDropReasonIsIncorrectlyReceived(packetDropped)
attr title "packets dropped (checksum error), count"
vector 123 SmartSubstationTopology.borderGateway1.ppp[0].ppp transmissionState:vector ETV
attr interpolationmode sample-hold
attr recordingmode vector
attr source transmissionStateChanged
attr title "tx state"
vector 124 SmartSubstationTopology.borderGateway1.udp passedUpPk:vector(count) ETV
attr interpolationmode none
attr recordingmode vector(count)
attr source packetSentToUpper
attr title "packets passed up, count"
vector 125 SmartSubstationTopology.borderGateway1.udp droppedPkWrongPort:vector(count) ETV
attr interpolationmode none
attr recordingmode vector(count)
attr source packetDropReasonIsNoPortFound(packetDropped)
attr title "packets dropped (wrong port), count"
vector 126 SmartSubstationTopology.borderGateway1.udp droppedPkBadChecksum:vector(count) ETV
attr interpolationmode none
attr recordingmode vector(count)
attr source packetDropReasonIsIncorrectlyReceived(packetDropped)
attr title "packets dropped (checksum error), count"
vector 127 SmartSubstationTopology.borderGateway2.ppp[0].ppp transmissionState:vector ETV
attr interpolationmode sample-hold
attr recordingmode vector
attr source transmissionStateChanged
attr title "tx state"
vector 128 SmartSubstationTopology.borderGateway2.udp passedUpPk:vector(count) ETV
attr interpolationmode none
attr recordingmode vector(count)
attr source packetSentToUpper
attr title "packets passed up, count"
vector 129 SmartSubstationTopology.borderGateway2.udp droppedPkWrongPort:vector(count) ETV
attr interpolationmode none
attr recordingmode vector(count)
attr source packetDropReasonIsNoPortFound(packetDropped)
attr title "packets dropped (wrong port), count"
vector 130 SmartSubstationTopology.borderGateway2.udp droppedPkBadChecksum:vector(count) ETV
attr interpolationmode none
attr recordingmode vector(count)
attr source packetDropReasonIsIncorrectlyReceived(packetDropped)
attr title "packets dropped (checksum error), count"
vector 131 SmartSubstationTopology.otnDevice.ppp[0].ppp transmissionState:vector ETV
attr interpolationmode sample-hold
attr recordingmode vector
attr source transmissionStateChanged
attr title "tx state"
vector 132 SmartSubstationTopology.otnDevice.ppp[1].ppp transmissionState:vector ETV
attr interpolationmode sample-hold
attr recordingmode vector
attr source transmissionStateChanged
attr title "tx state"
vector 133 SmartSubstationTopology.otnDevice.udp passedUpPk:vector(count) ETV
attr interpolationmode none
attr recordingmode vector(count)
attr source packetSentToUpper
attr title "packets passed up, count"
vector 134 SmartSubstationTopology.otnDevice.udp droppedPkWrongPort:vector(count) ETV
attr interpolationmode none
attr recordingmode vector(count)
attr source packetDropReasonIsNoPortFound(packetDropped)
attr title "packets dropped (wrong port), count"
vector 135 SmartSubstationTopology.otnDevice.udp droppedPkBadChecksum:vector(count) ETV
attr interpolationmode none
attr recordingmode vector(count)
attr source packetDropReasonIsIncorrectlyReceived(packetDropped)
attr title "packets dropped (checksum error), count"
vector 136 SmartSubstationTopology.MU_A.udp packetSent:vector(packetBytes) ETV
attr interpolationmode none
attr recordingmode vector(packetBytes)
attr source packetSent
attr title "packets sent, packetBytes"
vector 137 SmartSubstationTopology.MU_B.udp packetSent:vector(packetBytes) ETV
attr interpolationmode none
attr recordingmode vector(packetBytes)
attr source packetSent
attr title "packets sent, packetBytes"
vector 138 SmartSubstationTopology.MU_A.ipv4.arp arpRequestSent:vector(packetBytes) ETV
attr recordingmode vector(packetBytes)
attr source arpRequestSent
attr title "ARP request sent, packetBytes"
vector 139 SmartSubstationTopology.MU_B.ipv4.arp arpRequestSent:vector(packetBytes) ETV
attr recordingmode vector(packetBytes)
attr source arpRequestSent
attr title "ARP request sent, packetBytes"
vector 140 SmartSubstationTopology.MU_A.ethernet encapPk:vector(packetBytes) ETV
attr interpolationmode none
attr recordingmode vector(packetBytes)
attr source encapPk
attr title "packets encapsulated, packetBytes"
vector 141 SmartSubstationTopology.MU_B.ethernet encapPk:vector(packetBytes) ETV
attr interpolationmode none
attr recordingmode vector(packetBytes)
attr source encapPk
attr title "packets encapsulated, packetBytes"
vector 142 SmartSubstationTopology.MU_A.eth[0].queue incomingPacketLengths:vector ETV
attr interpolationmode none
attr recordingmode vector
attr source packetLength(packetPushStarted)
attr title "incoming packet lengths"
attr unit b
vector 143 SmartSubstationTopology.MU_A.eth[0].queue queueingTime:vector ETV
attr interpolationmode none
attr recordingmode vector
attr source queueingTime(packetPulled)
attr title "queueing times"
attr unit s
vector 144 SmartSubstationTopology.MU_A.eth[0].queue outgoingPacketLengths:vector ETV
attr interpolationmode none
attr recordingmode vector
attr source packetLength(packetPulled)
attr title "outgoing packet lengths"
attr unit b
vector 145 SmartSubstationTopology.MU_A.eth[0].mac packetReceivedFromUpper:vector(packetBytes) ETV
attr interpolationmode none
attr recordingmode vector(packetBytes)
attr source packetReceivedFromUpper
attr title "packet bytes from higher layer, packetBytes"
vector 146 SmartSubstationTopology.MU_A.eth[0].queue queueLength:vector ETV
attr autoWarmupFilter false
attr interpolationmode sample-hold
attr recordingmode vector
attr source "warmup(atomic(constant0(packetPushEnded) + count(packetPushStarted) - count(packetPulled) - count(packetRemoved) - count(packetDropped)))"
attr title "queue length"
attr unit pk
vector 147 SmartSubstationTopology.MU_A.eth[0].queue queueBitLength:vector ETV
attr autoWarmupFilter false
attr interpolationmode sample-hold
attr recordingmode vector
attr source "warmup(atomic(constant0(packetPushEnded) + sum(packetLength(packetPushStarted)) - sum(packetLength(packetPulled)) - sum(packetLength(packetRemoved)) - sum(packetLength(packetDropped))))"
attr title "queue bit length"
attr unit b
vector 148 SmartSubstationTopology.MU_B.eth[0].queue incomingPacketLengths:vector ETV
attr interpolationmode none
attr recordingmode vector
attr source packetLength(packetPushStarted)
attr title "incoming packet lengths"
attr unit b
vector 149 SmartSubstationTopology.MU_B.eth[0].queue queueingTime:vector ETV
attr interpolationmode none
attr recordingmode vector
attr source queueingTime(packetPulled)
attr title "queueing times"
attr unit s
vector 150 SmartSubstationTopology.MU_B.eth[0].queue outgoingPacketLengths:vector ETV
attr interpolationmode none
attr recordingmode vector
attr source packetLength(packetPulled)
attr title "outgoing packet lengths"
attr unit b
vector 151 SmartSubstationTopology.MU_B.eth[0].mac packetReceivedFromUpper:vector(packetBytes) ETV
attr interpolationmode none
attr recordingmode vector(packetBytes)
attr source packetReceivedFromUpper
attr title "packet bytes from higher layer, packetBytes"
vector 152 SmartSubstationTopology.MU_B.eth[0].queue queueLength:vector ETV
attr autoWarmupFilter false
attr interpolationmode sample-hold
attr recordingmode vector
attr source "warmup(atomic(constant0(packetPushEnded) + count(packetPushStarted) - count(packetPulled) - count(packetRemoved) - count(packetDropped)))"
attr title "queue length"
attr unit pk
vector 153 SmartSubstationTopology.MU_B.eth[0].queue queueBitLength:vector ETV
attr autoWarmupFilter false
attr interpolationmode sample-hold
attr recordingmode vector
attr source "warmup(atomic(constant0(packetPushEnded) + sum(packetLength(packetPushStarted)) - sum(packetLength(packetPulled)) - sum(packetLength(packetRemoved)) - sum(packetLength(packetDropped))))"
attr title "queue bit length"
attr unit b
vector 154 SmartSubstationTopology.MU_A.eth[0].mac txPk:vector(packetBytes) ETV
attr interpolationmode none
attr recordingmode vector(packetBytes)
attr source packetSentToLower
attr title "packets transmitted, packetBytes"
vector 155 SmartSubstationTopology.MU_B.eth[0].mac txPk:vector(packetBytes) ETV
attr interpolationmode none
attr recordingmode vector(packetBytes)
attr source packetSentToLower
attr title "packets transmitted, packetBytes"
vector 156 SmartSubstationTopology.TSN_A_ACC_PROT.eth[0].mac rxPkOk:vector(packetBytes) ETV
attr interpolationmode none
attr recordingmode vector(packetBytes)
attr source rxPkOk
attr title "packets received OK, packetBytes"
vector 157 SmartSubstationTopology.TSN_A_ACC_PROT.eth[0].mac passedUpPk:vector(packetBytes) ETV
attr interpolationmode none
attr recordingmode vector(packetBytes)
attr source packetSentToUpper
attr title "packets passed to higher layer, packetBytes"
vector 158 SmartSubstationTopology.TSN_B_ACC_PROT.eth[0].mac rxPkOk:vector(packetBytes) ETV
attr interpolationmode none
attr recordingmode vector(packetBytes)
attr source rxPkOk
attr title "packets received OK, packetBytes"
vector 159 SmartSubstationTopology.TSN_B_ACC_PROT.eth[0].mac passedUpPk:vector(packetBytes) ETV
attr interpolationmode none
attr recordingmode vector(packetBytes)
attr source packetSentToUpper
attr title "packets passed to higher layer, packetBytes"
vector 160 SmartSubstationTopology.TSN_A_ACC_PROT.ethernet decapPk:vector(packetBytes) ETV
attr interpolationmode none
attr recordingmode vector(packetBytes)
attr source decapPk
attr title "packets decapsulated, packetBytes"
vector 161 SmartSubstationTopology.TSN_B_ACC_PROT.ethernet decapPk:vector(packetBytes) ETV
attr interpolationmode none
attr recordingmode vector(packetBytes)
attr source decapPk
attr title "packets decapsulated, packetBytes"
vector 162 SmartSubstationTopology.TSN_A_ACC_PROT.ethernet encapPk:vector(packetBytes) ETV
attr interpolationmode none
attr recordingmode vector(packetBytes)
attr source encapPk
attr title "packets encapsulated, packetBytes"
vector 163 SmartSubstationTopology.TSN_B_ACC_PROT.ethernet encapPk:vector(packetBytes) ETV
attr interpolationmode none
attr recordingmode vector(packetBytes)
attr source encapPk
attr title "packets encapsulated, packetBytes"
vector 164 SmartSubstationTopology.TSN_A_ACC_PROT.eth[1].queue incomingPacketLengths:vector ETV
attr interpolationmode none
attr recordingmode vector
attr source packetLength(packetPushStarted)
attr title "incoming packet lengths"
attr unit b
vector 165 SmartSubstationTopology.TSN_A_ACC_PROT.eth[1].queue queueingTime:vector ETV
attr interpolationmode none
attr recordingmode vector
attr source queueingTime(packetPulled)
attr title "queueing times"
attr unit s
vector 166 SmartSubstationTopology.TSN_A_ACC_PROT.eth[1].queue outgoingPacketLengths:vector ETV
attr interpolationmode none
attr recordingmode vector
attr source packetLength(packetPulled)
attr title "outgoing packet lengths"
attr unit b
vector 167 SmartSubstationTopology.TSN_A_ACC_PROT.eth[1].mac packetReceivedFromUpper:vector(packetBytes) ETV
attr interpolationmode none
attr recordingmode vector(packetBytes)
attr source packetReceivedFromUpper
attr title "packet bytes from higher layer, packetBytes"
vector 168 SmartSubstationTopology.TSN_A_ACC_PROT.eth[1].queue queueLength:vector ETV
attr autoWarmupFilter false
attr interpolationmode sample-hold
attr recordingmode vector
attr source "warmup(atomic(constant0(packetPushEnded) + count(packetPushStarted) - count(packetPulled) - count(packetRemoved) - count(packetDropped)))"
attr title "queue length"
attr unit pk
vector 169 SmartSubstationTopology.TSN_A_ACC_PROT.eth[1].queue queueBitLength:vector ETV
attr autoWarmupFilter false
attr interpolationmode sample-hold
attr recordingmode vector
attr source "warmup(atomic(constant0(packetPushEnded) + sum(packetLength(packetPushStarted)) - sum(packetLength(packetPulled)) - sum(packetLength(packetRemoved)) - sum(packetLength(packetDropped))))"
attr title "queue bit length"
attr unit b
vector 170 SmartSubstationTopology.TSN_A_ACC_PROT.eth[2].queue incomingPacketLengths:vector ETV
attr interpolationmode none
attr recordingmode vector
attr source packetLength(packetPushStarted)
attr title "incoming packet lengths"
attr unit b
vector 171 SmartSubstationTopology.TSN_A_ACC_PROT.eth[2].queue queueingTime:vector ETV
attr interpolationmode none
attr recordingmode vector
attr source queueingTime(packetPulled)
attr title "queueing times"
attr unit s
vector 172 SmartSubstationTopology.TSN_A_ACC_PROT.eth[2].queue outgoingPacketLengths:vector ETV
attr interpolationmode none
attr recordingmode vector
attr source packetLength(packetPulled)
attr title "outgoing packet lengths"
attr unit b
vector 173 SmartSubstationTopology.TSN_A_ACC_PROT.eth[2].mac packetReceivedFromUpper:vector(packetBytes) ETV
attr interpolationmode none
attr recordingmode vector(packetBytes)
attr source packetReceivedFromUpper
attr title "packet bytes from higher layer, packetBytes"
vector 174 SmartSubstationTopology.TSN_A_ACC_PROT.eth[2].queue queueLength:vector ETV
attr autoWarmupFilter false
attr interpolationmode sample-hold
attr recordingmode vector
attr source "warmup(atomic(constant0(packetPushEnded) + count(packetPushStarted) - count(packetPulled) - count(packetRemoved) - count(packetDropped)))"
attr title "queue length"
attr unit pk
vector 175 SmartSubstationTopology.TSN_A_ACC_PROT.eth[2].queue queueBitLength:vector ETV
attr autoWarmupFilter false
attr interpolationmode sample-hold
attr recordingmode vector
attr source "warmup(atomic(constant0(packetPushEnded) + sum(packetLength(packetPushStarted)) - sum(packetLength(packetPulled)) - sum(packetLength(packetRemoved)) - sum(packetLength(packetDropped))))"
attr title "queue bit length"
attr unit b
vector 176 SmartSubstationTopology.TSN_A_ACC_PROT.eth[3].queue incomingPacketLengths:vector ETV
attr interpolationmode none
attr recordingmode vector
attr source packetLength(packetPushStarted)
attr title "incoming packet lengths"
attr unit b
vector 177 SmartSubstationTopology.TSN_A_ACC_PROT.eth[3].queue queueingTime:vector ETV
attr interpolationmode none
attr recordingmode vector
attr source queueingTime(packetPulled)
attr title "queueing times"
attr unit s
vector 178 SmartSubstationTopology.TSN_A_ACC_PROT.eth[3].queue outgoingPacketLengths:vector ETV
attr interpolationmode none
attr recordingmode vector
attr source packetLength(packetPulled)
attr title "outgoing packet lengths"
attr unit b
vector 179 SmartSubstationTopology.TSN_A_ACC_PROT.eth[3].mac packetReceivedFromUpper:vector(packetBytes) ETV
attr interpolationmode none
attr recordingmode vector(packetBytes)
attr source packetReceivedFromUpper
attr title "packet bytes from higher layer, packetBytes"
vector 180 SmartSubstationTopology.TSN_A_ACC_PROT.eth[3].queue queueLength:vector ETV
attr autoWarmupFilter false
attr interpolationmode sample-hold
attr recordingmode vector
attr source "warmup(atomic(constant0(packetPushEnded) + count(packetPushStarted) - count(packetPulled) - count(packetRemoved) - count(packetDropped)))"
attr title "queue length"
attr unit pk
vector 181 SmartSubstationTopology.TSN_A_ACC_PROT.eth[3].queue queueBitLength:vector ETV
attr autoWarmupFilter false
attr interpolationmode sample-hold
attr recordingmode vector
attr source "warmup(atomic(constant0(packetPushEnded) + sum(packetLength(packetPushStarted)) - sum(packetLength(packetPulled)) - sum(packetLength(packetRemoved)) - sum(packetLength(packetDropped))))"
attr title "queue bit length"
attr unit b
vector 182 SmartSubstationTopology.TSN_B_ACC_PROT.eth[1].queue incomingPacketLengths:vector ETV
attr interpolationmode none
attr recordingmode vector
attr source packetLength(packetPushStarted)
attr title "incoming packet lengths"
attr unit b
vector 183 SmartSubstationTopology.TSN_B_ACC_PROT.eth[1].queue queueingTime:vector ETV
attr interpolationmode none
attr recordingmode vector
attr source queueingTime(packetPulled)
attr title "queueing times"
attr unit s
vector 184 SmartSubstationTopology.TSN_B_ACC_PROT.eth[1].queue outgoingPacketLengths:vector ETV
attr interpolationmode none
attr recordingmode vector
attr source packetLength(packetPulled)
attr title "outgoing packet lengths"
attr unit b
vector 185 SmartSubstationTopology.TSN_B_ACC_PROT.eth[1].mac packetReceivedFromUpper:vector(packetBytes) ETV
attr interpolationmode none
attr recordingmode vector(packetBytes)
attr source packetReceivedFromUpper
attr title "packet bytes from higher layer, packetBytes"
vector 186 SmartSubstationTopology.TSN_B_ACC_PROT.eth[1].queue queueLength:vector ETV
attr autoWarmupFilter false
attr interpolationmode sample-hold
attr recordingmode vector
attr source "warmup(atomic(constant0(packetPushEnded) + count(packetPushStarted) - count(packetPulled) - count(packetRemoved) - count(packetDropped)))"
attr title "queue length"
attr unit pk
vector 187 SmartSubstationTopology.TSN_B_ACC_PROT.eth[1].queue queueBitLength:vector ETV
attr autoWarmupFilter false
attr interpolationmode sample-hold
attr recordingmode vector
attr source "warmup(atomic(constant0(packetPushEnded) + sum(packetLength(packetPushStarted)) - sum(packetLength(packetPulled)) - sum(packetLength(packetRemoved)) - sum(packetLength(packetDropped))))"
attr title "queue bit length"
attr unit b
vector 188 SmartSubstationTopology.TSN_B_ACC_PROT.eth[2].queue incomingPacketLengths:vector ETV
attr interpolationmode none
attr recordingmode vector
attr source packetLength(packetPushStarted)
attr title "incoming packet lengths"
attr unit b
vector 189 SmartSubstationTopology.TSN_B_ACC_PROT.eth[2].queue queueingTime:vector ETV
attr interpolationmode none
attr recordingmode vector
attr source queueingTime(packetPulled)
attr title "queueing times"
attr unit s
vector 190 SmartSubstationTopology.TSN_B_ACC_PROT.eth[2].queue outgoingPacketLengths:vector ETV
attr interpolationmode none
attr recordingmode vector
attr source packetLength(packetPulled)
attr title "outgoing packet lengths"
attr unit b
vector 191 SmartSubstationTopology.TSN_B_ACC_PROT.eth[2].mac packetReceivedFromUpper:vector(packetBytes) ETV
attr interpolationmode none
attr recordingmode vector(packetBytes)
attr source packetReceivedFromUpper
attr title "packet bytes from higher layer, packetBytes"
vector 192 SmartSubstationTopology.TSN_B_ACC_PROT.eth[2].queue queueLength:vector ETV
attr autoWarmupFilter false
attr interpolationmode sample-hold
attr recordingmode vector
attr source "warmup(atomic(constant0(packetPushEnded) + count(packetPushStarted) - count(packetPulled) - count(packetRemoved) - count(packetDropped)))"
attr title "queue length"
attr unit pk
vector 193 SmartSubstationTopology.TSN_B_ACC_PROT.eth[2].queue queueBitLength:vector ETV
attr autoWarmupFilter false
attr interpolationmode sample-hold
attr recordingmode vector
attr source "warmup(atomic(constant0(packetPushEnded) + sum(packetLength(packetPushStarted)) - sum(packetLength(packetPulled)) - sum(packetLength(packetRemoved)) - sum(packetLength(packetDropped))))"
attr title "queue bit length"
attr unit b
vector 194 SmartSubstationTopology.TSN_B_ACC_PROT.eth[3].queue incomingPacketLengths:vector ETV
attr interpolationmode none
attr recordingmode vector
attr source packetLength(packetPushStarted)
attr title "incoming packet lengths"
attr unit b
vector 195 SmartSubstationTopology.TSN_B_ACC_PROT.eth[3].queue queueingTime:vector ETV
attr interpolationmode none
attr recordingmode vector
attr source queueingTime(packetPulled)
attr title "queueing times"
attr unit s
vector 196 SmartSubstationTopology.TSN_B_ACC_PROT.eth[3].queue outgoingPacketLengths:vector ETV
attr interpolationmode none
attr recordingmode vector
attr source packetLength(packetPulled)
attr title "outgoing packet lengths"
attr unit b
vector 197 SmartSubstationTopology.TSN_B_ACC_PROT.eth[3].mac packetReceivedFromUpper:vector(packetBytes) ETV
attr interpolationmode none
attr recordingmode vector(packetBytes)
attr source packetReceivedFromUpper
attr title "packet bytes from higher layer, packetBytes"
vector 198 SmartSubstationTopology.TSN_B_ACC_PROT.eth[3].queue queueLength:vector ETV
attr autoWarmupFilter false
attr interpolationmode sample-hold
attr recordingmode vector
attr source "warmup(atomic(constant0(packetPushEnded) + count(packetPushStarted) - count(packetPulled) - count(packetRemoved) - count(packetDropped)))"
attr title "queue length"
attr unit pk
vector 199 SmartSubstationTopology.TSN_B_ACC_PROT.eth[3].queue queueBitLength:vector ETV
attr autoWarmupFilter false
attr interpolationmode sample-hold
attr recordingmode vector
attr source "warmup(atomic(constant0(packetPushEnded) + sum(packetLength(packetPushStarted)) - sum(packetLength(packetPulled)) - sum(packetLength(packetRemoved)) - sum(packetLength(packetDropped))))"
attr title "queue bit length"
attr unit b
vector 200 SmartSubstationTopology.TSN_A_ACC_PROT.eth[1].mac txPk:vector(packetBytes) ETV
attr interpolationmode none
attr recordingmode vector(packetBytes)
attr source packetSentToLower
attr title "packets transmitted, packetBytes"
vector 201 SmartSubstationTopology.TSN_A_ACC_PROT.eth[2].mac txPk:vector(packetBytes) ETV
attr interpolationmode none
attr recordingmode vector(packetBytes)
attr source packetSentToLower
attr title "packets transmitted, packetBytes"
vector 202 SmartSubstationTopology.TSN_A_ACC_PROT.eth[3].mac txPk:vector(packetBytes) ETV
attr interpolationmode none
attr recordingmode vector(packetBytes)
attr source packetSentToLower
attr title "packets transmitted, packetBytes"
vector 203 SmartSubstationTopology.TSN_B_ACC_PROT.eth[1].mac txPk:vector(packetBytes) ETV
attr interpolationmode none
attr recordingmode vector(packetBytes)
attr source packetSentToLower
attr title "packets transmitted, packetBytes"
vector 204 SmartSubstationTopology.TSN_B_ACC_PROT.eth[2].mac txPk:vector(packetBytes) ETV
attr interpolationmode none
attr recordingmode vector(packetBytes)
attr source packetSentToLower
attr title "packets transmitted, packetBytes"
vector 205 SmartSubstationTopology.TSN_B_ACC_PROT.eth[3].mac txPk:vector(packetBytes) ETV
attr interpolationmode none
attr recordingmode vector(packetBytes)
attr source packetSentToLower
attr title "packets transmitted, packetBytes"
vector 206 SmartSubstationTopology.Protection_A.eth[0].mac rxPkOk:vector(packetBytes) ETV
attr interpolationmode none
attr recordingmode vector(packetBytes)
attr source rxPkOk
attr title "packets received OK, packetBytes"
vector 207 SmartSubstationTopology.Protection_A.eth[0].mac passedUpPk:vector(packetBytes) ETV
attr interpolationmode none
attr recordingmode vector(packetBytes)
attr source packetSentToUpper
attr title "packets passed to higher layer, packetBytes"
vector 208 SmartSubstationTopology.IT_A.eth[0].mac rxPkOk:vector(packetBytes) ETV
attr interpolationmode none
attr recordingmode vector(packetBytes)
attr source rxPkOk
attr title "packets received OK, packetBytes"
vector 209 SmartSubstationTopology.IT_A.eth[0].mac passedUpPk:vector(packetBytes) ETV
attr interpolationmode none
attr recordingmode vector(packetBytes)
attr source packetSentToUpper
attr title "packets passed to higher layer, packetBytes"
vector 210 SmartSubstationTopology.Protection_B.eth[0].mac rxPkOk:vector(packetBytes) ETV
attr interpolationmode none
attr recordingmode vector(packetBytes)
attr source rxPkOk
attr title "packets received OK, packetBytes"
vector 211 SmartSubstationTopology.Protection_B.eth[0].mac passedUpPk:vector(packetBytes) ETV
attr interpolationmode none
attr recordingmode vector(packetBytes)
attr source packetSentToUpper
attr title "packets passed to higher layer, packetBytes"
vector 212 SmartSubstationTopology.IT_B.eth[0].mac rxPkOk:vector(packetBytes) ETV
attr interpolationmode none
attr recordingmode vector(packetBytes)
attr source rxPkOk
attr title "packets received OK, packetBytes"
vector 213 SmartSubstationTopology.IT_B.eth[0].mac passedUpPk:vector(packetBytes) ETV
attr interpolationmode none
attr recordingmode vector(packetBytes)
attr source packetSentToUpper
attr title "packets passed to higher layer, packetBytes"
vector 214 SmartSubstationTopology.Protection_A.ethernet decapPk:vector(packetBytes) ETV
attr interpolationmode none
attr recordingmode vector(packetBytes)
attr source decapPk
attr title "packets decapsulated, packetBytes"
vector 215 SmartSubstationTopology.IT_A.ethernet decapPk:vector(packetBytes) ETV
attr interpolationmode none
attr recordingmode vector(packetBytes)
attr source decapPk
attr title "packets decapsulated, packetBytes"
vector 216 SmartSubstationTopology.Protection_B.ethernet decapPk:vector(packetBytes) ETV
attr interpolationmode none
attr recordingmode vector(packetBytes)
attr source decapPk
attr title "packets decapsulated, packetBytes"
vector 217 SmartSubstationTopology.IT_B.ethernet decapPk:vector(packetBytes) ETV
attr interpolationmode none
attr recordingmode vector(packetBytes)
attr source decapPk
attr title "packets decapsulated, packetBytes"
vector 218 SmartSubstationTopology.Protection_A.ipv4.arp arpReplySent:vector(packetBytes) ETV
attr recordingmode vector(packetBytes)
attr source arpReplySent
attr title "ARP replies sent, packetBytes"
vector 219 SmartSubstationTopology.Protection_B.ipv4.arp arpReplySent:vector(packetBytes) ETV
attr recordingmode vector(packetBytes)
attr source arpReplySent
attr title "ARP replies sent, packetBytes"
vector 220 SmartSubstationTopology.Protection_A.ethernet encapPk:vector(packetBytes) ETV
attr interpolationmode none
attr recordingmode vector(packetBytes)
attr source encapPk
attr title "packets encapsulated, packetBytes"
vector 221 SmartSubstationTopology.Protection_B.ethernet encapPk:vector(packetBytes) ETV
attr interpolationmode none
attr recordingmode vector(packetBytes)
attr source encapPk
attr title "packets encapsulated, packetBytes"
vector 222 SmartSubstationTopology.Protection_A.eth[0].queue incomingPacketLengths:vector ETV
attr interpolationmode none
attr recordingmode vector
attr source packetLength(packetPushStarted)
attr title "incoming packet lengths"
attr unit b
vector 223 SmartSubstationTopology.Protection_A.eth[0].queue queueingTime:vector ETV
attr interpolationmode none
attr recordingmode vector
attr source queueingTime(packetPulled)
attr title "queueing times"
attr unit s
vector 224 SmartSubstationTopology.Protection_A.eth[0].queue outgoingPacketLengths:vector ETV
attr interpolationmode none
attr recordingmode vector
attr source packetLength(packetPulled)
attr title "outgoing packet lengths"
attr unit b
vector 225 SmartSubstationTopology.Protection_A.eth[0].mac packetReceivedFromUpper:vector(packetBytes) ETV
attr interpolationmode none
attr recordingmode vector(packetBytes)
attr source packetReceivedFromUpper
attr title "packet bytes from higher layer, packetBytes"
vector 226 SmartSubstationTopology.Protection_A.eth[0].queue queueLength:vector ETV
attr autoWarmupFilter false
attr interpolationmode sample-hold
attr recordingmode vector
attr source "warmup(atomic(constant0(packetPushEnded) + count(packetPushStarted) - count(packetPulled) - count(packetRemoved) - count(packetDropped)))"
attr title "queue length"
attr unit pk
vector 227 SmartSubstationTopology.Protection_A.eth[0].queue queueBitLength:vector ETV
attr autoWarmupFilter false
attr interpolationmode sample-hold
attr recordingmode vector
attr source "warmup(atomic(constant0(packetPushEnded) + sum(packetLength(packetPushStarted)) - sum(packetLength(packetPulled)) - sum(packetLength(packetRemoved)) - sum(packetLength(packetDropped))))"
attr title "queue bit length"
attr unit b
vector 228 SmartSubstationTopology.Protection_B.eth[0].queue incomingPacketLengths:vector ETV
attr interpolationmode none
attr recordingmode vector
attr source packetLength(packetPushStarted)
attr title "incoming packet lengths"
attr unit b
vector 229 SmartSubstationTopology.Protection_B.eth[0].queue queueingTime:vector ETV
attr interpolationmode none
attr recordingmode vector
attr source queueingTime(packetPulled)
attr title "queueing times"
attr unit s
vector 230 SmartSubstationTopology.Protection_B.eth[0].queue outgoingPacketLengths:vector ETV
attr interpolationmode none
attr recordingmode vector
attr source packetLength(packetPulled)
attr title "outgoing packet lengths"
attr unit b
vector 231 SmartSubstationTopology.Protection_B.eth[0].mac packetReceivedFromUpper:vector(packetBytes) ETV
attr interpolationmode none
attr recordingmode vector(packetBytes)
attr source packetReceivedFromUpper
attr title "packet bytes from higher layer, packetBytes"
vector 232 SmartSubstationTopology.Protection_B.eth[0].queue queueLength:vector ETV
attr autoWarmupFilter false
attr interpolationmode sample-hold
attr recordingmode vector
attr source "warmup(atomic(constant0(packetPushEnded) + count(packetPushStarted) - count(packetPulled) - count(packetRemoved) - count(packetDropped)))"
attr title "queue length"
attr unit pk
vector 233 SmartSubstationTopology.Protection_B.eth[0].queue queueBitLength:vector ETV
attr autoWarmupFilter false
attr interpolationmode sample-hold
attr recordingmode vector
attr source "warmup(atomic(constant0(packetPushEnded) + sum(packetLength(packetPushStarted)) - sum(packetLength(packetPulled)) - sum(packetLength(packetRemoved)) - sum(packetLength(packetDropped))))"
attr title "queue bit length"
attr unit b
vector 234 SmartSubstationTopology.Protection_A.eth[0].mac txPk:vector(packetBytes) ETV
attr interpolationmode none
attr recordingmode vector(packetBytes)
attr source packetSentToLower
attr title "packets transmitted, packetBytes"
vector 235 SmartSubstationTopology.Protection_B.eth[0].mac txPk:vector(packetBytes) ETV
attr interpolationmode none
attr recordingmode vector(packetBytes)
attr source packetSentToLower
attr title "packets transmitted, packetBytes"
vector 236 SmartSubstationTopology.TSN_A.eth[0].mac rxPkOk:vector(packetBytes) ETV
attr interpolationmode none
attr recordingmode vector(packetBytes)
attr source rxPkOk
attr title "packets received OK, packetBytes"
vector 237 SmartSubstationTopology.TSN_A.eth[0].mac passedUpPk:vector(packetBytes) ETV
attr interpolationmode none
attr recordingmode vector(packetBytes)
attr source packetSentToUpper
attr title "packets passed to higher layer, packetBytes"
vector 238 SmartSubstationTopology.TSN_B.eth[0].mac rxPkOk:vector(packetBytes) ETV
attr interpolationmode none
attr recordingmode vector(packetBytes)
attr source rxPkOk
attr title "packets received OK, packetBytes"
vector 239 SmartSubstationTopology.TSN_B.eth[0].mac passedUpPk:vector(packetBytes) ETV
attr interpolationmode none
attr recordingmode vector(packetBytes)
attr source packetSentToUpper
attr title "packets passed to higher layer, packetBytes"
vector 240 SmartSubstationTopology.TSN_A.ethernet decapPk:vector(packetBytes) ETV
attr interpolationmode none
attr recordingmode vector(packetBytes)
attr source decapPk
attr title "packets decapsulated, packetBytes"
vector 241 SmartSubstationTopology.TSN_B.ethernet decapPk:vector(packetBytes) ETV
attr interpolationmode none
attr recordingmode vector(packetBytes)
attr source decapPk
attr title "packets decapsulated, packetBytes"
vector 242 SmartSubstationTopology.TSN_A.ethernet encapPk:vector(packetBytes) ETV
attr interpolationmode none
attr recordingmode vector(packetBytes)
attr source encapPk
attr title "packets encapsulated, packetBytes"
vector 243 SmartSubstationTopology.TSN_B.ethernet encapPk:vector(packetBytes) ETV
attr interpolationmode none
attr recordingmode vector(packetBytes)
attr source encapPk
attr title "packets encapsulated, packetBytes"
vector 244 SmartSubstationTopology.TSN_A.eth[1].queue incomingPacketLengths:vector ETV
attr interpolationmode none
attr recordingmode vector
attr source packetLength(packetPushStarted)
attr title "incoming packet lengths"
attr unit b
vector 245 SmartSubstationTopology.TSN_A.eth[1].queue queueingTime:vector ETV
attr interpolationmode none
attr recordingmode vector
attr source queueingTime(packetPulled)
attr title "queueing times"
attr unit s
vector 246 SmartSubstationTopology.TSN_A.eth[1].queue outgoingPacketLengths:vector ETV
attr interpolationmode none
attr recordingmode vector
attr source packetLength(packetPulled)
attr title "outgoing packet lengths"
attr unit b
vector 247 SmartSubstationTopology.TSN_A.eth[1].mac packetReceivedFromUpper:vector(packetBytes) ETV
attr interpolationmode none
attr recordingmode vector(packetBytes)
attr source packetReceivedFromUpper
attr title "packet bytes from higher layer, packetBytes"
vector 248 SmartSubstationTopology.TSN_A.eth[1].queue queueLength:vector ETV
attr autoWarmupFilter false
attr interpolationmode sample-hold
attr recordingmode vector
attr source "warmup(atomic(constant0(packetPushEnded) + count(packetPushStarted) - count(packetPulled) - count(packetRemoved) - count(packetDropped)))"
attr title "queue length"
attr unit pk
vector 249 SmartSubstationTopology.TSN_A.eth[1].queue queueBitLength:vector ETV
attr autoWarmupFilter false
attr interpolationmode sample-hold
attr recordingmode vector
attr source "warmup(atomic(constant0(packetPushEnded) + sum(packetLength(packetPushStarted)) - sum(packetLength(packetPulled)) - sum(packetLength(packetRemoved)) - sum(packetLength(packetDropped))))"
attr title "queue bit length"
attr unit b
vector 250 SmartSubstationTopology.TSN_A.eth[2].queue incomingPacketLengths:vector ETV
attr interpolationmode none
attr recordingmode vector
attr source packetLength(packetPushStarted)
attr title "incoming packet lengths"
attr unit b
vector 251 SmartSubstationTopology.TSN_A.eth[2].queue queueingTime:vector ETV
attr interpolationmode none
attr recordingmode vector
attr source queueingTime(packetPulled)
attr title "queueing times"
attr unit s
vector 252 SmartSubstationTopology.TSN_A.eth[2].queue outgoingPacketLengths:vector ETV
attr interpolationmode none
attr recordingmode vector
attr source packetLength(packetPulled)
attr title "outgoing packet lengths"
attr unit b
vector 253 SmartSubstationTopology.TSN_A.eth[2].mac packetReceivedFromUpper:vector(packetBytes) ETV
attr interpolationmode none
attr recordingmode vector(packetBytes)
attr source packetReceivedFromUpper
attr title "packet bytes from higher layer, packetBytes"
vector 254 SmartSubstationTopology.TSN_A.eth[2].queue queueLength:vector ETV
attr autoWarmupFilter false
attr interpolationmode sample-hold
attr recordingmode vector
attr source "warmup(atomic(constant0(packetPushEnded) + count(packetPushStarted) - count(packetPulled) - count(packetRemoved) - count(packetDropped)))"
attr title "queue length"
attr unit pk
vector 255 SmartSubstationTopology.TSN_A.eth[2].queue queueBitLength:vector ETV
attr autoWarmupFilter false
attr interpolationmode sample-hold
attr recordingmode vector
attr source "warmup(atomic(constant0(packetPushEnded) + sum(packetLength(packetPushStarted)) - sum(packetLength(packetPulled)) - sum(packetLength(packetRemoved)) - sum(packetLength(packetDropped))))"
attr title "queue bit length"
attr unit b
[...]
915	583605 40 6692 6692 0.01437759265 0.01437759265 1 106832.90571596 106832.90571596 106832.90571596 11413269743.716
916	583645 40 6692 6692 0.01437759265 0.01437759265 1 106832.90571596 106832.90571596 106832.90571596 11413269743.716
917	583685 40 6692 6692 0.01437759265 0.01437759265 1 106832.90571596 106832.90571596 106832.90571596 11413269743.716
918	583725 40 6692 6692 0.01437759265 0.01437759265 1 106832.90571596 106832.90571596 106832.90571596 11413269743.716
919	583765 40 6692 6692 0.01437759265 0.01437759265 1 106832.90571596 106832.90571596 106832.90571596 11413269743.716
920	583805 40 6692 6692 0.01437759265 0.01437759265 1 106832.90571596 106832.90571596 106832.90571596 11413269743.716
921	583845 26 6692 6692 0.01437759265 0.01437759265 1 0 0 0 0
922	583871 26 6692 6692 0.01437759265 0.01437759265 1 0 0 0 0
923	583897 40 6692 6692 0.01437759265 0.01437759265 1 51190.767322233 51190.767322233 51190.767322233 2620494659.039
924	583937 40 6692 6692 0.01437759265 0.01437759265 1 51190.767322233 51190.767322233 51190.767322233 2620494659.039
925	583977 26 6692 6692 0.01437759265 0.01437759265 1 0 0 0 0
926	584003 26 6692 6692 0.01437759265 0.01437759265 1 0 0 0 0
927	584029 26 6692 6692 0.01437759265 0.01437759265 1 0 0 0 0
928	584055 26 6692 6692 0.01437759265 0.01437759265 1 0 0 0 0
929	584081 26 6692 6692 0.01437759265 0.01437759265 1 0 0 0 0
930	584107 26 6692 6692 0.01437759265 0.01437759265 1 0 0 0 0
931	584133 26 6692 6692 0.01437759265 0.01437759265 1 0 0 0 0
932	584159 26 6692 6692 0.01437759265 0.01437759265 1 0 0 0 0
933	584185 26 6692 6692 0.01437759265 0.01437759265 1 0 0 0 0
934	584211 26 6692 6692 0.01437759265 0.01437759265 1 0 0 0 0
935	584237 26 6692 6692 0.01437759265 0.01437759265 1 0 0 0 0
936	584263 26 6692 6692 0.01437759265 0.01437759265 1 0 0 0 0
937	584289 26 6692 6692 0.01437759265 0.01437759265 1 0 0 0 0
938	584315 26 6692 6692 0.01437759265 0.01437759265 1 0 0 0 0
939	584341 26 6692 6692 0.01437759265 0.01437759265 1 0 0 0 0
940	584367 26 6692 6692 0.01437759265 0.01437759265 1 0 0 0 0
941	584393 26 6692 6692 0.01437759265 0.01437759265 1 0 0 0 0
942	584419 26 6692 6692 0.01437759265 0.01437759265 1 0 0 0 0
943	584445 26 6692 6692 0.01437759265 0.01437759265 1 0 0 0 0
944	584471 26 6692 6692 0.01437759265 0.01437759265 1 0 0 0 0
945	584497 26 6692 6692 0.01437759265 0.01437759265 1 0 0 0 0
946	584523 26 6692 6692 0.01437759265 0.01437759265 1 0 0 0 0
947	584549 26 6692 6692 0.01437759265 0.01437759265 1 0 0 0 0
948	584575 26 6692 6692 0.01437759265 0.01437759265 1 0 0 0 0
949	584601 26 6692 6692 0.01437759265 0.01437759265 1 0 0 0 0
950	584627 26 6692 6692 0.01437759265 0.01437759265 1 0 0 0 0
951	584653 26 6692 6692 0.01437759265 0.01437759265 1 0 0 0 0
952	584679 26 6692 6692 0.01437759265 0.01437759265 1 0 0 0 0
953	584705 26 6692 6692 0.01437759265 0.01437759265 1 0 0 0 0
954	584731 26 6692 6692 0.01437759265 0.01437759265 1 0 0 0 0
955	584757 26 6692 6692 0.01437759265 0.01437759265 1 0 0 0 0
956	584783 26 6692 6692 0.01437759265 0.01437759265 1 0 0 0 0
957	584809 26 6692 6692 0.01437759265 0.01437759265 1 0 0 0 0
958	584835 26 6692 6692 0.01437759265 0.01437759265 1 0 0 0 0
959	584861 26 6692 6692 0.01437759265 0.01437759265 1 0 0 0 0
960	584887 26 6692 6692 0.01437759265 0.01437759265 1 0 0 0 0
961	584913 26 6692 6692 0.01437759265 0.01437759265 1 0 0 0 0
962	584939 26 6692 6692 0.01437759265 0.01437759265 1 0 0 0 0
963	584965 26 6692 6692 0.01437759265 0.01437759265 1 0 0 0 0
964	584991 26 6692 6692 0.01437759265 0.01437759265 1 0 0 0 0
965	585017 26 6692 6692 0.01437759265 0.01437759265 1 0 0 0 0
966	585043 26 6692 6692 0.01437759265 0.01437759265 1 0 0 0 0
967	585069 26 6692 6692 0.01437759265 0.01437759265 1 0 0 0 0
968	585095 26 6692 6692 0.01437759265 0.01437759265 1 0 0 0 0
969	585121 26 6692 6692 0.01437759265 0.01437759265 1 0 0 0 0
970	585147 26 6692 6692 0.01437759265 0.01437759265 1 0 0 0 0
971	585173 26 6692 6692 0.01437759265 0.01437759265 1 0 0 0 0
972	585199 26 6692 6692 0.01437759265 0.01437759265 1 0 0 0 0
973	585225 26 6692 6692 0.01437759265 0.01437759265 1 0 0 0 0
974	585251 26 6692 6692 0.01437759265 0.01437759265 1 0 0 0 0
975	585277 26 6692 6692 0.01437759265 0.01437759265 1 0 0 0 0
976	585303 26 6692 6692 0.01437759265 0.01437759265 1 0 0 0 0
977	585329 26 6692 6692 0.01437759265 0.01437759265 1 0 0 0 0
978	585355 26 6692 6692 0.01437759265 0.01437759265 1 0 0 0 0
979	585381 26 6692 6692 0.01437759265 0.01437759265 1 0 0 0 0
980	585407 26 6692 6692 0.01437759265 0.01437759265 1 0 0 0 0
981	585433 26 6692 6692 0.01437759265 0.01437759265 1 0 0 0 0
982	585459 26 6692 6692 0.01437759265 0.01437759265 1 0 0 0 0
983	585485 26 6692 6692 0.01437759265 0.01437759265 1 0 0 0 0
984	585511 26 6692 6692 0.01437759265 0.01437759265 1 0 0 0 0
985	585537 26 6692 6692 0.01437759265 0.01437759265 1 0 0 0 0
986	585563 26 6692 6692 0.01437759265 0.01437759265 1 0 0 0 0
987	585589 26 6692 6692 0.01437759265 0.01437759265 1 0 0 0 0
988	585615 26 6692 6692 0.01437759265 0.01437759265 1 0 0 0 0
989	585641 26 6692 6692 0.01437759265 0.01437759265 1 0 0 0 0
990	585667 26 6692 6692 0.01437759265 0.01437759265 1 0 0 0 0
991	585693 26 6692 6692 0.01437759265 0.01437759265 1 0 0 0 0
992	585719 26 6692 6692 0.01437759265 0.01437759265 1 0 0 0 0
993	585745 26 6692 6692 0.01437759265 0.01437759265 1 0 0 0 0
994	585771 26 6692 6692 0.01437759265 0.01437759265 1 0 0 0 0
995	585797 40 6692 6692 0.01437759265 0.01437759265 1 71221.937143977 71221.937143977 71221.937143977 5072564330.5406
996	585837 40 6692 6692 0.01437759265 0.01437759265 1 71221.937143977 71221.937143977 71221.937143977 5072564330.5406
997	585877 40 6692 6692 0.01437759265 0.01437759265 1 106832.90571596 106832.90571596 106832.90571596 11413269743.716
998	585917 40 6692 6692 0.01437759265 0.01437759265 1 106832.90571596 106832.90571596 106832.90571596 11413269743.716
999	585957 40 6692 6692 0.01437759265 0.01437759265 1 106832.90571596 106832.90571596 106832.90571596 11413269743.716
1000	585997 41 6692 6692 0.01437759265 0.01437759265 1 106832.90571596 106832.90571596 106832.90571596 11413269743.716
1001	586038 41 6692 6692 0.01437759265 0.01437759265 1 106832.90571596 106832.90571596 106832.90571596 11413269743.716
1002	586079 41 6692 6692 0.01437759265 0.01437759265 1 106832.90571596 106832.90571596 106832.90571596 11413269743.716
1003	586120 41 6692 6692 0.01437759265 0.01437759265 1 106832.90571596 106832.90571596 106832.90571596 11413269743.716
1004	586161 41 6692 6692 0.01437759265 0.01437759265 1 106832.90571596 106832.90571596 106832.90571596 11413269743.716
1005	586202 41 6692 6692 0.01437759265 0.01437759265 1 106832.90571596 106832.90571596 106832.90571596 11413269743.716
1006	586243 41 6692 6692 0.01437759265 0.01437759265 1 106832.90571596 106832.90571596 106832.90571596 11413269743.716
1007	586284 41 6692 6692 0.01437759265 0.01437759265 1 106832.90571596 106832.90571596 106832.90571596 11413269743.716
1008	586325 41 6692 6692 0.01437759265 0.01437759265 1 106832.90571596 106832.90571596 106832.90571596 11413269743.716
1009	586366 41 6692 6692 0.01437759265 0.01437759265 1 106832.90571596 106832.90571596 106832.90571596 11413269743.716
1010	586407 41 6692 6692 0.01437759265 0.01437759265 1 106832.90571596 106832.90571596 106832.90571596 11413269743.716
1011	586448 41 6692 6692 0.01437759265 0.01437759265 1 106832.90571596 106832.90571596 106832.90571596 11413269743.716
1012	586489 41 6692 6692 0.01437759265 0.01437759265 1 106832.90571596 106832.90571596 106832.90571596 11413269743.716
1013	586530 41 6692 6692 0.01437759265 0.01437759265 1 5902518.0408071 5902518.0408071 5902518.0408071 34839719222053
1014	586571 41 6692 6692 0.01437759265 0.01437759265 1 5902518.0408071 5902518.0408071 5902518.0408071 34839719222053
1015	586612 27 6692 6692 0.01437759265 0.01437759265 1 0 0 0 0
1016	586639 27 6692 6692 0.01437759265 0.01437759265 1 0 0 0 0
1017	586666 41 6692 6692 0.01437759265 0.01437759265 1 106832.90571596 106832.90571596 106832.90571596 11413269743.716
1018	586707 41 6692 6692 0.01437759265 0.01437759265 1 106832.90571596 106832.90571596 106832.90571596 11413269743.716
1019	586748 41 6692 6692 0.01437759265 0.01437759265 1 6006012.4182194 6006012.4182194 6006012.4182194 36072185167806
1020	586789 41 6692 6692 0.01437759265 0.01437759265 1 6006012.4182194 6006012.4182194 6006012.4182194 36072185167806
1021	586830 41 6692 6692 0.01437759265 0.01437759265 1 106832.90571596 106832.90571596 106832.90571596 11413269743.716
1022	586871 41 6692 6692 0.01437759265 0.01437759265 1 106832.90571596 106832.90571596 106832.90571596 11413269743.716
1023	586912 41 6692 6692 0.01437759265 0.01437759265 1 6006012.4182194 6006012.4182194 6006012.4182194 36072185167806
1024	586953 41 6692 6692 0.01437759265 0.01437759265 1 6006012.4182194 6006012.4182194 6006012.4182194 36072185167806
1025	586994 27 6692 6692 0.01437759265 0.01437759265 1 0 0 0 0
1026	587021 27 6692 6692 0.01437759265 0.01437759265 1 0 0 0 0
1027	587048 41 6692 6692 0.01437759265 0.01437759265 1 106832.90571596 106832.90571596 106832.90571596 11413269743.716
1028	587089 41 6692 6692 0.01437759265 0.01437759265 1 106832.90571596 106832.90571596 106832.90571596 11413269743.716
1029	587130 27 6692 6692 0.01437759265 0.01437759265 1 0 0 0 0
1030	587157 27 6692 6692 0.01437759265 0.01437759265 1 0 0 0 0
1031	587184 27 6692 6692 0.01437759265 0.01437759265 1 0 0 0 0
1032	587211 27 6692 6692 0.01437759265 0.01437759265 1 0 0 0 0
1033	587238 41 6692 6692 0.01437759265 0.01437759265 1 106832.90571596 106832.90571596 106832.90571596 11413269743.716
1034	587279 41 6692 6692 0.01437759265 0.01437759265 1 106832.90571596 106832.90571596 106832.90571596 11413269743.716
1035	587320 27 6692 6692 0.01437759265 0.01437759265 1 0 0 0 0
1036	587347 27 6692 6692 0.01437759265 0.01437759265 1 0 0 0 0
1037	587374 27 6692 6692 0.01437759265 0.01437759265 1 0 0 0 0
1038	587401 27 6692 6692 0.01437759265 0.01437759265 1 0 0 0 0
1039	587428 41 6692 6692 0.01437759265 0.01437759265 1 106832.90571596 106832.90571596 106832.90571596 11413269743.716
1040	587469 41 6692 6692 0.01437759265 0.01437759265 1 106832.90571596 106832.90571596 106832.90571596 11413269743.716
1041	587510 27 6692 6692 0.01437759265 0.01437759265 1 0 0 0 0
1042	587537 27 6692 6692 0.01437759265 0.01437759265 1 0 0 0 0
1043	587564 27 6692 6692 0.01437759265 0.01437759265 1 0 0 0 0
1044	587591 27 6692 6692 0.01437759265 0.01437759265 1 0 0 0 0
1045	587618 41 6692 6692 0.01437759265 0.01437759265 1 106832.90571596 106832.90571596 106832.90571596 11413269743.716
1046	587659 41 6692 6692 0.01437759265 0.01437759265 1 106832.90571596 106832.90571596 106832.90571596 11413269743.716
1047	587700 41 6692 6692 0.01437759265 0.01437759265 1 106832.90571596 106832.90571596 106832.90571596 11413269743.716
1048	587741 41 6692 6692 0.01437759265 0.01437759265 1 106832.90571596 106832.90571596 106832.90571596 11413269743.716
1049	587782 41 6692 6692 0.01437759265 0.01437759265 1 106832.90571596 106832.90571596 106832.90571596 11413269743.716
1050	587823 41 6692 6692 0.01437759265 0.01437759265 1 106832.90571596 106832.90571596 106832.90571596 11413269743.716
1051	587864 41 6692 6692 0.01437759265 0.01437759265 1 106832.90571596 106832.90571596 106832.90571596 11413269743.716
1052	587905 41 6692 6692 0.01437759265 0.01437759265 1 106832.90571596 106832.90571596 106832.90571596 11413269743.716
1053	587946 41 6692 6692 0.01437759265 0.01437759265 1 106832.90571596 106832.90571596 106832.90571596 11413269743.716
1054	587987 41 6692 6692 0.01437759265 0.01437759265 1 106832.90571596 106832.90571596 106832.90571596 11413269743.716
1055	588028 41 6692 6692 0.01437759265 0.01437759265 1 106832.90571596 106832.90571596 106832.90571596 11413269743.716
1056	588069 41 6692 6692 0.01437759265 0.01437759265 1 106832.90571596 106832.90571596 106832.90571596 11413269743.716
1057	588110 27 6692 6692 0.01437759265 0.01437759265 1 0 0 0 0
1058	588137 27 6692 6692 0.01437759265 0.01437759265 1 0 0 0 0
1059	588164 27 6692 6692 0.01437759265 0.01437759265 1 0 0 0 0
1060	588191 27 6692 6692 0.01437759265 0.01437759265 1 0 0 0 0
1061	588218 41 6692 6692 0.01437759265 0.01437759265 1 106832.90571596 106832.90571596 106832.90571596 11413269743.716
1062	588259 41 6692 6692 0.01437759265 0.01437759265 1 106832.90571596 106832.90571596 106832.90571596 11413269743.716
1063	588300 41 6692 6692 0.01437759265 0.01437759265 1 106832.90571596 106832.90571596 106832.90571596 11413269743.716
1064	588341 41 6692 6692 0.01437759265 0.01437759265 1 106832.90571596 106832.90571596 106832.90571596 11413269743.716
1065	588382 41 6692 6692 0.01437759265 0.01437759265 1 106832.90571596 106832.90571596 106832.90571596 11413269743.716
1066	588423 41 6692 6692 0.01437759265 0.01437759265 1 106832.90571596 106832.90571596 106832.90571596 11413269743.716
1067	588464 41 6692 6692 0.01437759265 0.01437759265 1 106832.90571596 106832.90571596 106832.90571596 11413269743.716
1068	588505 41 6692 6692 0.01437759265 0.01437759265 1 106832.90571596 106832.90571596 106832.90571596 11413269743.716
1069	588546 41 6692 6692 0.01437759265 0.01437759265 1 106832.90571596 106832.90571596 106832.90571596 11413269743.716
1070	588587 41 6692 6692 0.01437759265 0.01437759265 1 106832.90571596 106832.90571596 106832.90571596 11413269743.716
1071	588628 41 6692 6692 0.01437759265 0.01437759265 1 106832.90571596 106832.90571596 106832.90571596 11413269743.716
1072	588669 41 6692 6692 0.01437759265 0.01437759265 1 106832.90571596 106832.90571596 106832.90571596 11413269743.716
1073	588710 27 6692 6692 0.01437759265 0.01437759265 1 0 0 0 0
1074	588737 27 6692 6692 0.01437759265 0.01437759265 1 0 0 0 0
1075	588764 41 6692 6692 0.01437759265 0.01437759265 1 51190.767322233 51190.767322233 51190.767322233 2620494659.039
1076	588805 41 6692 6692 0.01437759265 0.01437759265 1 51190.767322233 51190.767322233 51190.767322233 2620494659.039
1077	588846 27 6692 6692 0.01437759265 0.01437759265 1 0 0 0 0
1078	588873 27 6692 6692 0.01437759265 0.01437759265 1 0 0 0 0
1079	588900 27 6692 6692 0.01437759265 0.01437759265 1 0 0 0 0
1080	588927 27 6692 6692 0.01437759265 0.01437759265 1 0 0 0 0
1081	588954 27 6692 6692 0.01437759265 0.01437759265 1 0 0 0 0
1082	588981 27 6692 6692 0.01437759265 0.01437759265 1 0 0 0 0
1083	589008 27 6692 6692 0.01437759265 0.01437759265 1 0 0 0 0
1084	589035 27 6692 6692 0.01437759265 0.01437759265 1 0 0 0 0
1085	589062 27 6692 6692 0.01437759265 0.01437759265 1 0 0 0 0
1086	589089 27 6692 6692 0.01437759265 0.01437759265 1 0 0 0 0
1087	589116 27 6692 6692 0.01437759265 0.01437759265 1 0 0 0 0
1088	589143 27 6692 6692 0.01437759265 0.01437759265 1 0 0 0 0
1089	589170 27 6692 6692 0.01437759265 0.01437759265 1 0 0 0 0
1090	589197 27 6692 6692 0.01437759265 0.01437759265 1 0 0 0 0
1091	589224 27 6692 6692 0.01437759265 0.01437759265 1 0 0 0 0
1092	589251 27 6692 6692 0.01437759265 0.01437759265 1 0 0 0 0
1093	589278 27 6692 6692 0.01437759265 0.01437759265 1 0 0 0 0
1094	589305 27 6692 6692 0.01437759265 0.01437759265 1 0 0 0 0
1095	589332 27 6692 6692 0.01437759265 0.01437759265 1 0 0 0 0
1096	589359 27 6692 6692 0.01437759265 0.01437759265 1 0 0 0 0
1097	589386 27 6692 6692 0.01437759265 0.01437759265 1 0 0 0 0
1098	589413 27 6692 6692 0.01437759265 0.01437759265 1 0 0 0 0
1099	589440 27 6692 6692 0.01437759265 0.01437759265 1 0 0 0 0
1100	589467 27 6692 6692 0.01437759265 0.01437759265 1 0 0 0 0
1101	589494 27 6692 6692 0.01437759265 0.01437759265 1 0 0 0 0
1102	589521 27 6692 6692 0.01437759265 0.01437759265 1 0 0 0 0
1103	589548 27 6692 6692 0.01437759265 0.01437759265 1 0 0 0 0
1104	589575 27 6692 6692 0.01437759265 0.01437759265 1 0 0 0 0
1105	589602 27 6692 6692 0.01437759265 0.01437759265 1 0 0 0 0
1106	589629 27 6692 6692 0.01437759265 0.01437759265 1 0 0 0 0
1107	589656 27 6692 6692 0.01437759265 0.01437759265 1 0 0 0 0
1108	589683 27 6692 6692 0.01437759265 0.01437759265 1 0 0 0 0
1109	589710 27 6692 6692 0.01437759265 0.01437759265 1 0 0 0 0
1110	589737 27 6692 6692 0.01437759265 0.01437759265 1 0 0 0 0
1111	589764 27 6692 6692 0.01437759265 0.01437759265 1 0 0 0 0
1112	589791 27 6692 6692 0.01437759265 0.01437759265 1 0 0 0 0
1113	589818 27 6692 6692 0.01437759265 0.01437759265 1 0 0 0 0
1114	589845 27 6692 6692 0.01437759265 0.01437759265 1 0 0 0 0
1115	589872 27 6692 6692 0.01437759265 0.01437759265 1 0 0 0 0
1116	589899 27 6692 6692 0.01437759265 0.01437759265 1 0 0 0 0
1117	589926 27 6692 6692 0.01437759265 0.01437759265 1 0 0 0 0
1118	589953 27 6692 6692 0.01437759265 0.01437759265 1 0 0 0 0
1119	589980 27 6692 6692 0.01437759265 0.01437759265 1 0 0 0 0
1120	590007 27 6692 6692 0.01437759265 0.01437759265 1 0 0 0 0
1121	590034 27 6692 6692 0.01437759265 0.01437759265 1 0 0 0 0
1122	590061 27 6692 6692 0.01437759265 0.01437759265 1 0 0 0 0
1123	590088 27 6692 6692 0.01437759265 0.01437759265 1 0 0 0 0
1124	590115 27 6692 6692 0.01437759265 0.01437759265 1 0 0 0 0
1125	590142 27 6692 6692 0.01437759265 0.01437759265 1 0 0 0 0
1126	590169 27 6692 6692 0.01437759265 0.01437759265 1 0 0 0 0
1127	590196 27 6692 6692 0.01437759265 0.01437759265 1 0 0 0 0
1128	590223 27 6692 6692 0.01437759265 0.01437759265 1 0 0 0 0
1129	590250 27 6692 6692 0.01437759265 0.01437759265 1 0 0 0 0
1130	590277 27 6692 6692 0.01437759265 0.01437759265 1 0 0 0 0
1131	590304 27 6692 6692 0.01437759265 0.01437759265 1 0 0 0 0
1132	590331 27 6692 6692 0.01437759265 0.01437759265 1 0 0 0 0
1133	590358 27 6692 6692 0.01437759265 0.01437759265 1 0 0 0 0
1134	590385 27 6692 6692 0.01437759265 0.01437759265 1 0 0 0 0
1135	590412 27 6692 6692 0.01437759265 0.01437759265 1 0 0 0 0
1136	590439 27 6692 6692 0.01437759265 0.01437759265 1 0 0 0 0
1137	590466 27 6692 6692 0.01437759265 0.01437759265 1 0 0 0 0
1138	590493 27 6692 6692 0.01437759265 0.01437759265 1 0 0 0 0
1139	590520 27 6692 6692 0.01437759265 0.01437759265 1 0 0 0 0
1140	590547 27 6692 6692 0.01437759265 0.01437759265 1 0 0 0 0
1141	590574 27 6692 6692 0.01437759265 0.01437759265 1 0 0 0 0
1142	590601 27 6692 6692 0.01437759265 0.01437759265 1 0 0 0 0
1143	590628 27 6692 6692 0.01437759265 0.01437759265 1 0 0 0 0
1144	590655 27 6692 6692 0.01437759265 0.01437759265 1 0 0 0 0
1145	590682 27 6692 6692 0.01437759265 0.01437759265 1 0 0 0 0
1146	590709 27 6692 6692 0.01437759265 0.01437759265 1 0 0 0 0
1147	590736 27 6692 6692 0.01437759265 0.01437759265 1 0 0 0 0
1148	590763 27 6692 6692 0.01437759265 0.01437759265 1 0 0 0 0
1149	590790 27 6692 6692 0.01437759265 0.01437759265 1 0 0 0 0
1150	590817 27 6692 6692 0.01437759265 0.01437759265 1 0 0 0 0
1151	590844 41 6692 6692 0.01437759265 0.01437759265 1 4486982.0400705 4486982.0400705 4486982.0400705 20133007827915
1152	590885 41 6692 6692 0.01437759265 0.01437759265 1 4486982.0400705 4486982.0400705 4486982.0400705 20133007827915
1153	590926 41 6692 6692 0.01437759265 0.01437759265 1 51190.767322233 51190.767322233 51190.767322233 2620494659.039
1154	590967 41 6692 6692 0.01437759265 0.01437759265 1 51190.767322233 51190.767322233 51190.767322233 2620494659.039
1155	591008 41 6692 6692 0.01437759265 0.01437759265 1 4486982.0400705 4486982.0400705 4486982.0400705 20133007827915
1156	591049 41 6692 6692 0.01437759265 0.01437759265 1 4486982.0400705 4486982.0400705 4486982.0400705 20133007827915
1157	591090 41 6692 6692 0.01437759265 0.01437759265 1 51190.767322233 51190.767322233 51190.767322233 2620494659.039
1158	591131 41 6692 6692 0.01437759265 0.01437759265 1 51190.767322233 51190.767322233 51190.767322233 2620494659.039
1159	591172 41 6692 6692 0.01437759265 0.01437759265 1 3739151.7000588 3739151.7000588 3739151.7000588 13981255436052
1160	591213 41 6692 6692 0.01437759265 0.01437759265 1 3739151.7000588 3739151.7000588 3739151.7000588 13981255436052
1161	591254 41 6692 6692 0.01437759265 0.01437759265 1 3739151.7000588 3739151.7000588 3739151.7000588 13981255436052
1162	591295 41 6692 6692 0.01437759265 0.01437759265 1 3739151.7000588 3739151.7000588 3739151.7000588 13981255436052

