file 10848449 1769160029                                        
version 3
run SimpleTest-0-20260123-17:17:57-24668
attr configname SimpleTest
attr datetime 20260123-17:17:57
attr datetimef 20260123-171757
attr experiment SimpleTest
attr inifile omnetpp.ini
attr iterationvars ""
attr iterationvarsd ""
attr iterationvarsf ""
attr measurement ""
attr network SmartSubstationTopology
attr processid 24668
attr repetition 0
attr replication #0
attr resultdir results
attr runnumber 0
attr seedset 0
config image-path ../inet4.5/images
config network SmartSubstationTopology
config sim-time-limit 300s
config *.configurator.typename IPv4NetworkConfigurator
config *.stationA_MU.numApps 1
config *.stationA_MU.app[0].typename UdpBasicApp
config *.stationA_MU.app[0].destAddress "\"10.0.0.2\""
config *.stationA_MU.app[0].destPort 1000
config *.stationA_MU.app[0].messageLength 100B
config *.stationA_MU.app[0].sendInterval 1s
config *.stationA_MU.app[0].startTime 0.5s
config *.stationA_Protection.numApps 1
config *.stationA_Protection.app[0].typename UdpSink
config *.stationA_Protection.app[0].localPort 1000
config *.stationA_MU.ipv4.address "\"10.0.0.1\""
config *.stationA_MU.ipv4.netmask "\"255.255.255.0\""
config *.stationA_Protection.ipv4.address "\"10.0.0.2\""
config *.stationA_Protection.ipv4.netmask "\"255.255.255.0\""
config *.configurator.typename ""
config network SmartSubstationTopology
config sim-time-limit 50s
config cmdenv-express-mode false
config record-eventlog true
config **.udp.verbose true
config **.ipv4.verbose true
config **.arp.verbose true
config *.configurator.typename IPv4NetworkConfigurator
config **.hasIpv4 true
config **.hasUdp true
config **.hasTcp false
config *.stationA_MU.numApps 1
config *.stationA_MU.app[0].typename UdpBasicApp
config *.stationA_MU.app[0].localPort 1000
config *.stationA_MU.app[0].destAddress "\"stationA_Protection\""
config *.stationA_MU.app[0].destPort 2000
config *.stationA_MU.app[0].messageLength 140B
config *.stationA_MU.app[0].sendInterval 250us
config *.stationA_MU.app[0].startTime 0.2s
config *.stationA_MU.app[0].packetName "\"SV_Packet\""
config *.stationA_MU.app[0].dscp 56
config *.stationA_MU.app[0].verbose true
config *.stationA_Protection.numApps 3
config *.stationA_Protection.app[0].typename UdpSink
config *.stationA_Protection.app[0].localPort 2000
config *.stationA_Protection.app[0].verbose true
config *.stationA_Protection.app[1].typename UdpBasicApp
config *.stationA_Protection.app[1].localPort 2001
config *.stationA_Protection.app[1].destAddress "\"stationA_IT\""
config *.stationA_Protection.app[1].destPort 3000
config *.stationA_Protection.app[1].messageLength 120B
config *.stationA_Protection.app[1].sendInterval exponential(2s)
config *.stationA_Protection.app[1].startTime 0.8s
config *.stationA_Protection.app[1].packetName "\"GOOSE_Packet\""
config *.stationA_Protection.app[1].dscp 48
config *.stationA_Protection.app[1].verbose true
config *.stationA_IT.numApps 1
config *.stationA_IT.app[0].typename UdpSink
config *.stationA_IT.app[0].localPort 3000
config *.stationA_IT.app[0].verbose true
config *.stationA_Protection.app[2].typename UdpBasicApp
config *.stationA_Protection.app[2].localPort 2002
config *.stationA_Protection.app[2].destAddress "\"stationB_Protection\""
config *.stationA_Protection.app[2].destPort 4000
config *.stationA_Protection.app[2].messageLength 100B
config *.stationA_Protection.app[2].sendInterval 1.5s
config *.stationA_Protection.app[2].startTime 1.2s
config *.stationA_Protection.app[2].packetName "\"CrossStation_Packet\""
config *.stationA_Protection.app[2].verbose true
config *.stationB_Protection.numApps 1
config *.stationB_Protection.app[0].typename UdpSink
config *.stationB_Protection.app[0].localPort 4000
config *.stationB_Protection.app[0].verbose true
config *.stationA_BusProtection.numApps 1
config *.stationA_BusProtection.app[0].typename UdpSink
config *.stationA_BusProtection.app[0].localPort 5000
config *.stationA_BusProtection.app[0].verbose true
config *.stationA_BusProtection_MU1.numApps 1
config *.stationA_BusProtection_MU1.app[0].typename UdpBasicApp
config *.stationA_BusProtection_MU1.app[0].localPort 5101
config *.stationA_BusProtection_MU1.app[0].destAddress "\"stationA_BusProtection\""
config *.stationA_BusProtection_MU1.app[0].destPort 5000
config *.stationA_BusProtection_MU1.app[0].messageLength 140B
config *.stationA_BusProtection_MU1.app[0].sendInterval 250us
config *.stationA_BusProtection_MU1.app[0].startTime 0.3s
config *.stationA_BusProtection_MU1.app[0].packetName "\"Bus_SV_1\""
config *.stationA_BusProtection_MU1.app[0].dscp 56
config *.stationA_BusProtection_MU1.app[0].verbose true
config *.stationA_BusProtection_MU2.numApps 1
config *.stationA_BusProtection_MU2.app[0].typename UdpBasicApp
config *.stationA_BusProtection_MU2.app[0].localPort 5102
config *.stationA_BusProtection_MU2.app[0].destAddress "\"stationA_BusProtection\""
config *.stationA_BusProtection_MU2.app[0].destPort 5000
config *.stationA_BusProtection_MU2.app[0].messageLength 140B
config *.stationA_BusProtection_MU2.app[0].sendInterval 250us
config *.stationA_BusProtection_MU2.app[0].startTime 0.4s
config *.stationA_BusProtection_MU2.app[0].packetName "\"Bus_SV_2\""
config *.stationA_BusProtection_MU2.app[0].dscp 56
config *.stationA_BusProtection_MU2.app[0].verbose true
config *.stationA_BusProtection_MU3.numApps 1
config *.stationA_BusProtection_MU3.app[0].typename UdpBasicApp
config *.stationA_BusProtection_MU3.app[0].localPort 5103
config *.stationA_BusProtection_MU3.app[0].destAddress "\"stationA_BusProtection\""
config *.stationA_BusProtection_MU3.app[0].destPort 5000
config *.stationA_BusProtection_MU3.app[0].messageLength 140B
config *.stationA_BusProtection_MU3.app[0].sendInterval 250us
config *.stationA_BusProtection_MU3.app[0].startTime 0.5s
config *.stationA_BusProtection_MU3.app[0].packetName "\"Bus_SV_3\""
config *.stationA_BusProtection_MU3.app[0].dscp 56
config *.stationA_BusProtection_MU3.app[0].verbose true
config *.stationB_BusProtection.numApps 1
config *.stationB_BusProtection.app[0].typename UdpSink
config *.stationB_BusProtection.app[0].localPort 5000
config *.stationB_BusProtection.app[0].verbose true
config *.stationB_BusProtection_MU1.numApps 1
config *.stationB_BusProtection_MU1.app[0].typename UdpBasicApp
config *.stationB_BusProtection_MU1.app[0].localPort 5101
config *.stationB_BusProtection_MU1.app[0].destAddress "\"stationB_BusProtection\""
config *.stationB_BusProtection_MU1.app[0].destPort 5000
config *.stationB_BusProtection_MU1.app[0].messageLength 140B
config *.stationB_BusProtection_MU1.app[0].sendInterval 250us
config *.stationB_BusProtection_MU1.app[0].startTime 0.3s
config *.stationB_BusProtection_MU1.app[0].packetName "\"Bus_SV_1\""
config *.stationB_BusProtection_MU1.app[0].dscp 56
config *.stationB_BusProtection_MU1.app[0].verbose true
config *.stationB_BusProtection_MU2.numApps 1
config *.stationB_BusProtection_MU2.app[0].typename UdpBasicApp
config *.stationB_BusProtection_MU2.app[0].localPort 5102
config *.stationB_BusProtection_MU2.app[0].destAddress "\"stationB_BusProtection\""
config *.stationB_BusProtection_MU2.app[0].destPort 5000
config *.stationB_BusProtection_MU2.app[0].messageLength 140B
config *.stationB_BusProtection_MU2.app[0].sendInterval 250us
config *.stationB_BusProtection_MU2.app[0].startTime 0.4s
config *.stationB_BusProtection_MU2.app[0].packetName "\"Bus_SV_2\""
config *.stationB_BusProtection_MU2.app[0].dscp 56
config *.stationB_BusProtection_MU2.app[0].verbose true
config *.stationB_BusProtection_MU3.numApps 1
config *.stationB_BusProtection_MU3.app[0].typename UdpBasicApp
config *.stationB_BusProtection_MU3.app[0].localPort 5103
config *.stationB_BusProtection_MU3.app[0].destAddress "\"stationB_BusProtection\""
config *.stationB_BusProtection_MU3.app[0].destPort 5000
config *.stationB_BusProtection_MU3.app[0].messageLength 140B
config *.stationB_BusProtection_MU3.app[0].sendInterval 250us
config *.stationB_BusProtection_MU3.app[0].startTime 0.5s
config *.stationB_BusProtection_MU3.app[0].packetName "\"Bus_SV_3\""
config *.stationB_BusProtection_MU3.app[0].dscp 56
config *.stationB_BusProtection_MU3.app[0].verbose true
config *.stationA_Camera*.numApps 1
config *.stationA_Camera*.app[0].typename UdpBasicApp
config *.stationA_Camera*.app[0].destAddress "\"stationA_OMServer\""
config *.stationA_Camera*.app[0].destPort 6000
config *.stationA_Camera*.app[0].messageLength 10MB
config *.stationA_Camera*.app[0].sendInterval 33.33ms
config *.stationA_Camera*.app[0].startTime "uniform(0.5s, 1s)"
config *.stationA_Camera*.app[0].packetName "\"Video_Stream\""
config *.stationA_Camera*.app[0].dscp 0
config *.stationA_Camera*.app[0].verbose true
config *.stationB_Camera*.numApps 1
config *.stationB_Camera*.app[0].typename UdpBasicApp
config *.stationB_Camera*.app[0].destAddress "\"stationB_OMServer\""
config *.stationB_Camera*.app[0].destPort 6000
config *.stationB_Camera*.app[0].messageLength 10MB
config *.stationB_Camera*.app[0].sendInterval 33.33ms
config *.stationB_Camera*.app[0].startTime "uniform(0.5s, 1s)"
config *.stationB_Camera*.app[0].packetName "\"Video_Stream\""
config *.stationB_Camera*.app[0].dscp 0
config *.stationB_Camera*.app[0].verbose true
config *.stationA_OMServer.numApps 1
config *.stationA_OMServer.app[0].typename UdpSink
config *.stationA_OMServer.app[0].localPort 6000
config *.stationA_OMServer.app[0].verbose true
config *.stationB_OMServer.numApps 1
config *.stationB_OMServer.app[0].typename UdpSink
config *.stationB_OMServer.app[0].localPort 6000
config *.stationB_OMServer.app[0].verbose true
config *.stationA_VoIP1.numApps 1
config *.stationA_VoIP1.app[0].typename UdpBasicApp
config *.stationA_VoIP1.app[0].localPort 7001
config *.stationA_VoIP1.app[0].destAddress "\"stationB_VoIP1\""
config *.stationA_VoIP1.app[0].destPort 8001
config *.stationA_VoIP1.app[0].messageLength 200B
config *.stationA_VoIP1.app[0].sendInterval 20ms
config *.stationA_VoIP1.app[0].startTime 0.6s
config *.stationA_VoIP1.app[0].packetName "\"VoIP_Stream\""
config *.stationA_VoIP1.app[0].dscp 40
config *.stationA_VoIP1.app[0].verbose true
config *.stationA_VoIP2.numApps 1
config *.stationA_VoIP2.app[0].typename UdpBasicApp
config *.stationA_VoIP2.app[0].localPort 7002
config *.stationA_VoIP2.app[0].destAddress "\"stationB_VoIP2\""
config *.stationA_VoIP2.app[0].destPort 8002
config *.stationA_VoIP2.app[0].messageLength 200B
config *.stationA_VoIP2.app[0].sendInterval 20ms
config *.stationA_VoIP2.app[0].startTime 0.7s
config *.stationA_VoIP2.app[0].packetName "\"VoIP_Stream\""
config *.stationA_VoIP2.app[0].dscp 40
config *.stationA_VoIP2.app[0].verbose true
config *.stationB_VoIP1.numApps 1
config *.stationB_VoIP1.app[0].typename UdpSink
config *.stationB_VoIP1.app[0].localPort 8001
config *.stationB_VoIP1.app[0].verbose true
config *.stationB_VoIP2.numApps 1
config *.stationB_VoIP2.app[0].typename UdpSink
config *.stationB_VoIP2.app[0].localPort 8002
config *.stationB_VoIP2.app[0].verbose true
config *.stationB_VoIP1.numApps 2
config *.stationB_VoIP1.app[1].typename UdpBasicApp
config *.stationB_VoIP1.app[1].localPort 8003
config *.stationB_VoIP1.app[1].destAddress "\"stationA_VoIP1\""
config *.stationB_VoIP1.app[1].destPort 7003
config *.stationB_VoIP1.app[1].messageLength 200B
config *.stationB_VoIP1.app[1].sendInterval 20ms
config *.stationB_VoIP1.app[1].startTime 0.8s
config *.stationB_VoIP1.app[1].packetName "\"VoIP_Stream_Reply\""
config *.stationB_VoIP1.app[1].dscp 40
config *.stationB_VoIP1.app[1].verbose true
config *.stationB_VoIP2.numApps 2
config *.stationB_VoIP2.app[1].typename UdpBasicApp
config *.stationB_VoIP2.app[1].localPort 8004
config *.stationB_VoIP2.app[1].destAddress "\"stationA_VoIP2\""
config *.stationB_VoIP2.app[1].destPort 7004
config *.stationB_VoIP2.app[1].messageLength 200B
config *.stationB_VoIP2.app[1].sendInterval 20ms
config *.stationB_VoIP2.app[1].startTime 0.9s
config *.stationB_VoIP2.app[1].packetName "\"VoIP_Stream_Reply\""
config *.stationB_VoIP2.app[1].dscp 40
config *.stationB_VoIP2.app[1].verbose true
config *.stationA_VoIP1.numApps 2
config *.stationA_VoIP1.app[1].typename UdpSink
config *.stationA_VoIP1.app[1].localPort 7003
config *.stationA_VoIP1.app[1].verbose true
config *.stationA_VoIP2.numApps 2
config *.stationA_VoIP2.app[1].typename UdpSink
config *.stationA_VoIP2.app[1].localPort 7004
config *.stationA_VoIP2.app[1].verbose true
config *.stationA_OMServer.numApps 2
config *.stationA_OMServer.app[1].typename UdpBasicApp
config *.stationA_OMServer.app[1].localPort 9001
config *.stationA_OMServer.app[1].destAddress "\"stationB_OMServer\""
config *.stationA_OMServer.app[1].destPort 9002
config *.stationA_OMServer.app[1].messageLength "normal(1500B, 500B)"
config *.stationA_OMServer.app[1].sendInterval exponential(0.1s)
config *.stationA_OMServer.app[1].startTime 1s
config *.stationA_OMServer.app[1].packetName "\"OM_Data_Burst\""
config *.stationA_OMServer.app[1].dscp 0
config *.stationA_OMServer.app[1].verbose true
config *.stationB_OMServer.numApps 2
config *.stationB_OMServer.app[1].typename UdpSink
config *.stationB_OMServer.app[1].localPort 9002
config *.stationB_OMServer.app[1].verbose true
config *.stationB_OMServer.numApps 3
config *.stationB_OMServer.app[2].typename UdpBasicApp
config *.stationB_OMServer.app[2].localPort 9003
config *.stationB_OMServer.app[2].destAddress "\"stationA_OMServer\""
config *.stationB_OMServer.app[2].destPort 9004
config *.stationB_OMServer.app[2].messageLength "normal(1500B, 500B)"
config *.stationB_OMServer.app[2].sendInterval exponential(0.1s)
config *.stationB_OMServer.app[2].startTime 1.2s
config *.stationB_OMServer.app[2].packetName "\"OM_Data_Burst_Reply\""
config *.stationB_OMServer.app[2].dscp 0
config *.stationB_OMServer.app[2].verbose true
config *.stationA_OMServer.numApps 3
config *.stationA_OMServer.app[2].typename UdpSink
config *.stationA_OMServer.app[2].localPort 9004
config *.stationA_OMServer.app[2].verbose true
config **.app[*].source.packetSentSignal true
config **.app[*].sink.packetReceivedSignal true
config **.app[*].sink.endToEndDelayStatistic.record true
config **.app[*].sink.delayHistogram.record true
config **.app[*].sink.numReceivedStatistic.record true
config **.app[*].sink.throughputStatistic.record true
config **.app[*].sink.jitterStatistic.record true
config **.app[*].sink.jitterHistogram.record true
config *.stationA_VoIP*.app[*].sink.delayThreshold 150ms
config *.stationA_VoIP*.app[*].sink.jitterThreshold 30ms
config *.stationB_VoIP*.app[*].sink.delayThreshold 150ms
config *.stationB_VoIP*.app[*].sink.jitterThreshold 30ms
config *.stationA_MU.app[0].sink.delayThreshold 30ms
config *.stationA_MU.app[0].sink.jitterThreshold 250us
config *.stationA_BusProtection_MU*.app[*].sink.delayThreshold 30ms
config *.stationA_BusProtection_MU*.app[*].sink.jitterThreshold 250us
config *.stationA_*.displayString "\"i=abstract/pc\""
config *.stationB_*.displayString "\"i=abstract/pc\""
config *.borderGateway*.displayString "\"i=misc/router\""
config *.otnDevice.displayString "\"i=misc/router_vs\""
config *.stationA_MU.displayString "\"i=block/switch,green\""
config *.stationA_Protection.displayString "\"i=block/computer,red\""
config *.stationA_IT.displayString "\"i=block/plug,blue\""
config *.stationB_Protection.displayString "\"i=block/computer,red\""
config *.stationA_BusProtection.displayString "\"i=block/computer,orange\""
config *.stationB_BusProtection.displayString "\"i=block/computer,orange\""
config *.stationA_BusProtection_MU*.displayString "\"i=block/switch,yellow\""
config *.stationB_BusProtection_MU*.displayString "\"i=block/switch,yellow\""
config *.stationA_Camera*.displayString "\"i=device/camera,gray\""
config *.stationB_Camera*.displayString "\"i=device/camera,gray\""
config *.stationA_VoIP*.displayString "\"i=device/iphone,gray\""
config *.stationB_VoIP*.displayString "\"i=device/iphone,gray\""
config *.stationA_OMServer.displayString "\"i=block/server,gray\""
config *.stationB_OMServer.displayString "\"i=block/server,gray\""
config **.channel.displayString "\"ls=black,1\""

vector 0 SmartSubstationTopology.stationA_MU.udp passedUpPk:vector(count) ETV
attr interpolationmode none
attr recordingmode vector(count)
attr source packetSentToUpper
attr title "packets passed up, count"
vector 1 SmartSubstationTopology.stationA_MU.udp droppedPkWrongPort:vector(count) ETV
attr interpolationmode none
attr recordingmode vector(count)
attr source packetDropReasonIsNoPortFound(packetDropped)
attr title "packets dropped (wrong port), count"
vector 2 SmartSubstationTopology.stationA_MU.udp droppedPkBadChecksum:vector(count) ETV
attr interpolationmode none
attr recordingmode vector(count)
attr source packetDropReasonIsIncorrectlyReceived(packetDropped)
attr title "packets dropped (checksum error), count"
vector 3 SmartSubstationTopology.stationA_Protection.udp passedUpPk:vector(count) ETV
attr interpolationmode none
attr recordingmode vector(count)
attr source packetSentToUpper
attr title "packets passed up, count"
vector 4 SmartSubstationTopology.stationA_Protection.udp droppedPkWrongPort:vector(count) ETV
attr interpolationmode none
attr recordingmode vector(count)
attr source packetDropReasonIsNoPortFound(packetDropped)
attr title "packets dropped (wrong port), count"
vector 5 SmartSubstationTopology.stationA_Protection.udp droppedPkBadChecksum:vector(count) ETV
attr interpolationmode none
attr recordingmode vector(count)
attr source packetDropReasonIsIncorrectlyReceived(packetDropped)
attr title "packets dropped (checksum error), count"
vector 6 SmartSubstationTopology.stationA_IT.udp passedUpPk:vector(count) ETV
attr interpolationmode none
attr recordingmode vector(count)
attr source packetSentToUpper
attr title "packets passed up, count"
vector 7 SmartSubstationTopology.stationA_IT.udp droppedPkWrongPort:vector(count) ETV
attr interpolationmode none
attr recordingmode vector(count)
attr source packetDropReasonIsNoPortFound(packetDropped)
attr title "packets dropped (wrong port), count"
vector 8 SmartSubstationTopology.stationA_IT.udp droppedPkBadChecksum:vector(count) ETV
attr interpolationmode none
attr recordingmode vector(count)
attr source packetDropReasonIsIncorrectlyReceived(packetDropped)
attr title "packets dropped (checksum error), count"
vector 9 SmartSubstationTopology.stationA_BusProtection_MU1.udp passedUpPk:vector(count) ETV
attr interpolationmode none
attr recordingmode vector(count)
attr source packetSentToUpper
attr title "packets passed up, count"
vector 10 SmartSubstationTopology.stationA_BusProtection_MU1.udp droppedPkWrongPort:vector(count) ETV
attr interpolationmode none
attr recordingmode vector(count)
attr source packetDropReasonIsNoPortFound(packetDropped)
attr title "packets dropped (wrong port), count"
vector 11 SmartSubstationTopology.stationA_BusProtection_MU1.udp droppedPkBadChecksum:vector(count) ETV
attr interpolationmode none
attr recordingmode vector(count)
attr source packetDropReasonIsIncorrectlyReceived(packetDropped)
attr title "packets dropped (checksum error), count"
vector 12 SmartSubstationTopology.stationA_BusProtection_MU2.udp passedUpPk:vector(count) ETV
attr interpolationmode none
attr recordingmode vector(count)
attr source packetSentToUpper
attr title "packets passed up, count"
vector 13 SmartSubstationTopology.stationA_BusProtection_MU2.udp droppedPkWrongPort:vector(count) ETV
attr interpolationmode none
attr recordingmode vector(count)
attr source packetDropReasonIsNoPortFound(packetDropped)
attr title "packets dropped (wrong port), count"
vector 14 SmartSubstationTopology.stationA_BusProtection_MU2.udp droppedPkBadChecksum:vector(count) ETV
attr interpolationmode none
attr recordingmode vector(count)
attr source packetDropReasonIsIncorrectlyReceived(packetDropped)
attr title "packets dropped (checksum error), count"
vector 15 SmartSubstationTopology.stationA_BusProtection_MU3.udp passedUpPk:vector(count) ETV
attr interpolationmode none
attr recordingmode vector(count)
attr source packetSentToUpper
attr title "packets passed up, count"
vector 16 SmartSubstationTopology.stationA_BusProtection_MU3.udp droppedPkWrongPort:vector(count) ETV
attr interpolationmode none
attr recordingmode vector(count)
attr source packetDropReasonIsNoPortFound(packetDropped)
attr title "packets dropped (wrong port), count"
vector 17 SmartSubstationTopology.stationA_BusProtection_MU3.udp droppedPkBadChecksum:vector(count) ETV
attr interpolationmode none
attr recordingmode vector(count)
attr source packetDropReasonIsIncorrectlyReceived(packetDropped)
attr title "packets dropped (checksum error), count"
vector 18 SmartSubstationTopology.stationA_BusProtection.udp passedUpPk:vector(count) ETV
attr interpolationmode none
attr recordingmode vector(count)
attr source packetSentToUpper
attr title "packets passed up, count"
vector 19 SmartSubstationTopology.stationA_BusProtection.udp droppedPkWrongPort:vector(count) ETV
attr interpolationmode none
attr recordingmode vector(count)
attr source packetDropReasonIsNoPortFound(packetDropped)
attr title "packets dropped (wrong port), count"
vector 20 SmartSubstationTopology.stationA_BusProtection.udp droppedPkBadChecksum:vector(count) ETV
attr interpolationmode none
attr recordingmode vector(count)
attr source packetDropReasonIsIncorrectlyReceived(packetDropped)
attr title "packets dropped (checksum error), count"
vector 21 SmartSubstationTopology.stationA_Camera1.udp passedUpPk:vector(count) ETV
attr interpolationmode none
attr recordingmode vector(count)
attr source packetSentToUpper
attr title "packets passed up, count"
vector 22 SmartSubstationTopology.stationA_Camera1.udp droppedPkWrongPort:vector(count) ETV
attr interpolationmode none
attr recordingmode vector(count)
attr source packetDropReasonIsNoPortFound(packetDropped)
attr title "packets dropped (wrong port), count"
vector 23 SmartSubstationTopology.stationA_Camera1.udp droppedPkBadChecksum:vector(count) ETV
attr interpolationmode none
attr recordingmode vector(count)
attr source packetDropReasonIsIncorrectlyReceived(packetDropped)
attr title "packets dropped (checksum error), count"
vector 24 SmartSubstationTopology.stationA_Camera2.udp passedUpPk:vector(count) ETV
attr interpolationmode none
attr recordingmode vector(count)
attr source packetSentToUpper
attr title "packets passed up, count"
vector 25 SmartSubstationTopology.stationA_Camera2.udp droppedPkWrongPort:vector(count) ETV
attr interpolationmode none
attr recordingmode vector(count)
attr source packetDropReasonIsNoPortFound(packetDropped)
attr title "packets dropped (wrong port), count"
vector 26 SmartSubstationTopology.stationA_Camera2.udp droppedPkBadChecksum:vector(count) ETV
attr interpolationmode none
attr recordingmode vector(count)
attr source packetDropReasonIsIncorrectlyReceived(packetDropped)
attr title "packets dropped (checksum error), count"
vector 27 SmartSubstationTopology.stationA_Camera3.udp passedUpPk:vector(count) ETV
attr interpolationmode none
attr recordingmode vector(count)
attr source packetSentToUpper
attr title "packets passed up, count"
vector 28 SmartSubstationTopology.stationA_Camera3.udp droppedPkWrongPort:vector(count) ETV
attr interpolationmode none
attr recordingmode vector(count)
attr source packetDropReasonIsNoPortFound(packetDropped)
attr title "packets dropped (wrong port), count"
vector 29 SmartSubstationTopology.stationA_Camera3.udp droppedPkBadChecksum:vector(count) ETV
attr interpolationmode none
attr recordingmode vector(count)
attr source packetDropReasonIsIncorrectlyReceived(packetDropped)
attr title "packets dropped (checksum error), count"
vector 30 SmartSubstationTopology.stationA_Camera4.udp passedUpPk:vector(count) ETV
attr interpolationmode none
attr recordingmode vector(count)
attr source packetSentToUpper
attr title "packets passed up, count"
vector 31 SmartSubstationTopology.stationA_Camera4.udp droppedPkWrongPort:vector(count) ETV
attr interpolationmode none
attr recordingmode vector(count)
attr source packetDropReasonIsNoPortFound(packetDropped)
attr title "packets dropped (wrong port), count"
vector 32 SmartSubstationTopology.stationA_Camera4.udp droppedPkBadChecksum:vector(count) ETV
attr interpolationmode none
attr recordingmode vector(count)
attr source packetDropReasonIsIncorrectlyReceived(packetDropped)
attr title "packets dropped (checksum error), count"
vector 33 SmartSubstationTopology.stationA_Camera5.udp passedUpPk:vector(count) ETV
attr interpolationmode none
attr recordingmode vector(count)
attr source packetSentToUpper
attr title "packets passed up, count"
vector 34 SmartSubstationTopology.stationA_Camera5.udp droppedPkWrongPort:vector(count) ETV
attr interpolationmode none
attr recordingmode vector(count)
attr source packetDropReasonIsNoPortFound(packetDropped)
attr title "packets dropped (wrong port), count"
vector 35 SmartSubstationTopology.stationA_Camera5.udp droppedPkBadChecksum:vector(count) ETV
attr interpolationmode none
attr recordingmode vector(count)
attr source packetDropReasonIsIncorrectlyReceived(packetDropped)
attr title "packets dropped (checksum error), count"
vector 36 SmartSubstationTopology.stationA_Camera6.udp passedUpPk:vector(count) ETV
attr interpolationmode none
attr recordingmode vector(count)
attr source packetSentToUpper
attr title "packets passed up, count"
vector 37 SmartSubstationTopology.stationA_Camera6.udp droppedPkWrongPort:vector(count) ETV
attr interpolationmode none
attr recordingmode vector(count)
attr source packetDropReasonIsNoPortFound(packetDropped)
attr title "packets dropped (wrong port), count"
vector 38 SmartSubstationTopology.stationA_Camera6.udp droppedPkBadChecksum:vector(count) ETV
attr interpolationmode none
attr recordingmode vector(count)
attr source packetDropReasonIsIncorrectlyReceived(packetDropped)
attr title "packets dropped (checksum error), count"
vector 39 SmartSubstationTopology.stationA_Camera7.udp passedUpPk:vector(count) ETV
attr interpolationmode none
attr recordingmode vector(count)
attr source packetSentToUpper
attr title "packets passed up, count"
vector 40 SmartSubstationTopology.stationA_Camera7.udp droppedPkWrongPort:vector(count) ETV
attr interpolationmode none
attr recordingmode vector(count)
attr source packetDropReasonIsNoPortFound(packetDropped)
attr title "packets dropped (wrong port), count"
vector 41 SmartSubstationTopology.stationA_Camera7.udp droppedPkBadChecksum:vector(count) ETV
attr interpolationmode none
attr recordingmode vector(count)
attr source packetDropReasonIsIncorrectlyReceived(packetDropped)
attr title "packets dropped (checksum error), count"
vector 42 SmartSubstationTopology.stationA_Camera8.udp passedUpPk:vector(count) ETV
attr interpolationmode none
attr recordingmode vector(count)
attr source packetSentToUpper
attr title "packets passed up, count"
vector 43 SmartSubstationTopology.stationA_Camera8.udp droppedPkWrongPort:vector(count) ETV
attr interpolationmode none
attr recordingmode vector(count)
attr source packetDropReasonIsNoPortFound(packetDropped)
attr title "packets dropped (wrong port), count"
vector 44 SmartSubstationTopology.stationA_Camera8.udp droppedPkBadChecksum:vector(count) ETV
attr interpolationmode none
attr recordingmode vector(count)
attr source packetDropReasonIsIncorrectlyReceived(packetDropped)
attr title "packets dropped (checksum error), count"
vector 45 SmartSubstationTopology.stationA_Camera9.udp passedUpPk:vector(count) ETV
attr interpolationmode none
attr recordingmode vector(count)
attr source packetSentToUpper
attr title "packets passed up, count"
vector 46 SmartSubstationTopology.stationA_Camera9.udp droppedPkWrongPort:vector(count) ETV
attr interpolationmode none
attr recordingmode vector(count)
attr source packetDropReasonIsNoPortFound(packetDropped)
attr title "packets dropped (wrong port), count"
vector 47 SmartSubstationTopology.stationA_Camera9.udp droppedPkBadChecksum:vector(count) ETV
attr interpolationmode none
attr recordingmode vector(count)
attr source packetDropReasonIsIncorrectlyReceived(packetDropped)
attr title "packets dropped (checksum error), count"
vector 48 SmartSubstationTopology.stationA_Camera10.udp passedUpPk:vector(count) ETV
attr interpolationmode none
attr recordingmode vector(count)
attr source packetSentToUpper
attr title "packets passed up, count"
vector 49 SmartSubstationTopology.stationA_Camera10.udp droppedPkWrongPort:vector(count) ETV
attr interpolationmode none
attr recordingmode vector(count)
attr source packetDropReasonIsNoPortFound(packetDropped)
attr title "packets dropped (wrong port), count"
vector 50 SmartSubstationTopology.stationA_Camera10.udp droppedPkBadChecksum:vector(count) ETV
attr interpolationmode none
attr recordingmode vector(count)
attr source packetDropReasonIsIncorrectlyReceived(packetDropped)
attr title "packets dropped (checksum error), count"
vector 51 SmartSubstationTopology.stationA_VoIP1.udp passedUpPk:vector(count) ETV
attr interpolationmode none
attr recordingmode vector(count)
attr source packetSentToUpper
attr title "packets passed up, count"
vector 52 SmartSubstationTopology.stationA_VoIP1.udp droppedPkWrongPort:vector(count) ETV
attr interpolationmode none
attr recordingmode vector(count)
attr source packetDropReasonIsNoPortFound(packetDropped)
attr title "packets dropped (wrong port), count"
vector 53 SmartSubstationTopology.stationA_VoIP1.udp droppedPkBadChecksum:vector(count) ETV
attr interpolationmode none
attr recordingmode vector(count)
attr source packetDropReasonIsIncorrectlyReceived(packetDropped)
attr title "packets dropped (checksum error), count"
vector 54 SmartSubstationTopology.stationA_VoIP2.udp passedUpPk:vector(count) ETV
attr interpolationmode none
attr recordingmode vector(count)
attr source packetSentToUpper
attr title "packets passed up, count"
vector 55 SmartSubstationTopology.stationA_VoIP2.udp droppedPkWrongPort:vector(count) ETV
attr interpolationmode none
attr recordingmode vector(count)
attr source packetDropReasonIsNoPortFound(packetDropped)
attr title "packets dropped (wrong port), count"
vector 56 SmartSubstationTopology.stationA_VoIP2.udp droppedPkBadChecksum:vector(count) ETV
attr interpolationmode none
attr recordingmode vector(count)
attr source packetDropReasonIsIncorrectlyReceived(packetDropped)
attr title "packets dropped (checksum error), count"
vector 57 SmartSubstationTopology.stationA_OMServer.udp passedUpPk:vector(count) ETV
attr interpolationmode none
attr recordingmode vector(count)
attr source packetSentToUpper
attr title "packets passed up, count"
vector 58 SmartSubstationTopology.stationA_OMServer.udp droppedPkWrongPort:vector(count) ETV
attr interpolationmode none
attr recordingmode vector(count)
attr source packetDropReasonIsNoPortFound(packetDropped)
attr title "packets dropped (wrong port), count"
vector 59 SmartSubstationTopology.stationA_OMServer.udp droppedPkBadChecksum:vector(count) ETV
attr interpolationmode none
attr recordingmode vector(count)
attr source packetDropReasonIsIncorrectlyReceived(packetDropped)
attr title "packets dropped (checksum error), count"
vector 60 SmartSubstationTopology.stationB_MU.udp passedUpPk:vector(count) ETV
attr interpolationmode none
attr recordingmode vector(count)
attr source packetSentToUpper
attr title "packets passed up, count"
vector 61 SmartSubstationTopology.stationB_MU.udp droppedPkWrongPort:vector(count) ETV
attr interpolationmode none
attr recordingmode vector(count)
attr source packetDropReasonIsNoPortFound(packetDropped)
attr title "packets dropped (wrong port), count"
vector 62 SmartSubstationTopology.stationB_MU.udp droppedPkBadChecksum:vector(count) ETV
attr interpolationmode none
attr recordingmode vector(count)
attr source packetDropReasonIsIncorrectlyReceived(packetDropped)
attr title "packets dropped (checksum error), count"
vector 63 SmartSubstationTopology.stationB_Protection.udp passedUpPk:vector(count) ETV
attr interpolationmode none
attr recordingmode vector(count)
attr source packetSentToUpper
attr title "packets passed up, count"
vector 64 SmartSubstationTopology.stationB_Protection.udp droppedPkWrongPort:vector(count) ETV
attr interpolationmode none
attr recordingmode vector(count)
attr source packetDropReasonIsNoPortFound(packetDropped)
attr title "packets dropped (wrong port), count"
vector 65 SmartSubstationTopology.stationB_Protection.udp droppedPkBadChecksum:vector(count) ETV
attr interpolationmode none
attr recordingmode vector(count)
attr source packetDropReasonIsIncorrectlyReceived(packetDropped)
attr title "packets dropped (checksum error), count"
vector 66 SmartSubstationTopology.stationB_IT.udp passedUpPk:vector(count) ETV
attr interpolationmode none
attr recordingmode vector(count)
attr source packetSentToUpper
attr title "packets passed up, count"
vector 67 SmartSubstationTopology.stationB_IT.udp droppedPkWrongPort:vector(count) ETV
attr interpolationmode none
attr recordingmode vector(count)
attr source packetDropReasonIsNoPortFound(packetDropped)
attr title "packets dropped (wrong port), count"
vector 68 SmartSubstationTopology.stationB_IT.udp droppedPkBadChecksum:vector(count) ETV
attr interpolationmode none
attr recordingmode vector(count)
attr source packetDropReasonIsIncorrectlyReceived(packetDropped)
attr title "packets dropped (checksum error), count"
vector 69 SmartSubstationTopology.stationB_BusProtection_MU1.udp passedUpPk:vector(count) ETV
attr interpolationmode none
attr recordingmode vector(count)
attr source packetSentToUpper
attr title "packets passed up, count"
vector 70 SmartSubstationTopology.stationB_BusProtection_MU1.udp droppedPkWrongPort:vector(count) ETV
attr interpolationmode none
attr recordingmode vector(count)
attr source packetDropReasonIsNoPortFound(packetDropped)
attr title "packets dropped (wrong port), count"
vector 71 SmartSubstationTopology.stationB_BusProtection_MU1.udp droppedPkBadChecksum:vector(count) ETV
attr interpolationmode none
attr recordingmode vector(count)
attr source packetDropReasonIsIncorrectlyReceived(packetDropped)
attr title "packets dropped (checksum error), count"
vector 72 SmartSubstationTopology.stationB_BusProtection_MU2.udp passedUpPk:vector(count) ETV
attr interpolationmode none
attr recordingmode vector(count)
attr source packetSentToUpper
attr title "packets passed up, count"
vector 73 SmartSubstationTopology.stationB_BusProtection_MU2.udp droppedPkWrongPort:vector(count) ETV
attr interpolationmode none
attr recordingmode vector(count)
attr source packetDropReasonIsNoPortFound(packetDropped)
attr title "packets dropped (wrong port), count"
vector 74 SmartSubstationTopology.stationB_BusProtection_MU2.udp droppedPkBadChecksum:vector(count) ETV
attr interpolationmode none
attr recordingmode vector(count)
attr source packetDropReasonIsIncorrectlyReceived(packetDropped)
attr title "packets dropped (checksum error), count"
vector 75 SmartSubstationTopology.stationB_BusProtection_MU3.udp passedUpPk:vector(count) ETV
attr interpolationmode none
attr recordingmode vector(count)
attr source packetSentToUpper
attr title "packets passed up, count"
vector 76 SmartSubstationTopology.stationB_BusProtection_MU3.udp droppedPkWrongPort:vector(count) ETV
attr interpolationmode none
attr recordingmode vector(count)
attr source packetDropReasonIsNoPortFound(packetDropped)
attr title "packets dropped (wrong port), count"
vector 77 SmartSubstationTopology.stationB_BusProtection_MU3.udp droppedPkBadChecksum:vector(count) ETV
attr interpolationmode none
attr recordingmode vector(count)
attr source packetDropReasonIsIncorrectlyReceived(packetDropped)
attr title "packets dropped (checksum error), count"
vector 78 SmartSubstationTopology.stationB_BusProtection.udp passedUpPk:vector(count) ETV
attr interpolationmode none
attr recordingmode vector(count)
attr source packetSentToUpper
attr title "packets passed up, count"
vector 79 SmartSubstationTopology.stationB_BusProtection.udp droppedPkWrongPort:vector(count) ETV
attr interpolationmode none
attr recordingmode vector(count)
attr source packetDropReasonIsNoPortFound(packetDropped)
attr title "packets dropped (wrong port), count"
vector 80 SmartSubstationTopology.stationB_BusProtection.udp droppedPkBadChecksum:vector(count) ETV
attr interpolationmode none
attr recordingmode vector(count)
attr source packetDropReasonIsIncorrectlyReceived(packetDropped)
attr title "packets dropped (checksum error), count"
vector 81 SmartSubstationTopology.stationB_Camera1.udp passedUpPk:vector(count) ETV
attr interpolationmode none
attr recordingmode vector(count)
attr source packetSentToUpper
attr title "packets passed up, count"
vector 82 SmartSubstationTopology.stationB_Camera1.udp droppedPkWrongPort:vector(count) ETV
attr interpolationmode none
attr recordingmode vector(count)
attr source packetDropReasonIsNoPortFound(packetDropped)
attr title "packets dropped (wrong port), count"
vector 83 SmartSubstationTopology.stationB_Camera1.udp droppedPkBadChecksum:vector(count) ETV
attr interpolationmode none
attr recordingmode vector(count)
attr source packetDropReasonIsIncorrectlyReceived(packetDropped)
attr title "packets dropped (checksum error), count"
vector 84 SmartSubstationTopology.stationB_Camera2.udp passedUpPk:vector(count) ETV
attr interpolationmode none
attr recordingmode vector(count)
attr source packetSentToUpper
attr title "packets passed up, count"
vector 85 SmartSubstationTopology.stationB_Camera2.udp droppedPkWrongPort:vector(count) ETV
attr interpolationmode none
attr recordingmode vector(count)
attr source packetDropReasonIsNoPortFound(packetDropped)
attr title "packets dropped (wrong port), count"
vector 86 SmartSubstationTopology.stationB_Camera2.udp droppedPkBadChecksum:vector(count) ETV
attr interpolationmode none
attr recordingmode vector(count)
attr source packetDropReasonIsIncorrectlyReceived(packetDropped)
attr title "packets dropped (checksum error), count"
vector 87 SmartSubstationTopology.stationB_Camera3.udp passedUpPk:vector(count) ETV
attr interpolationmode none
attr recordingmode vector(count)
attr source packetSentToUpper
attr title "packets passed up, count"
vector 88 SmartSubstationTopology.stationB_Camera3.udp droppedPkWrongPort:vector(count) ETV
attr interpolationmode none
attr recordingmode vector(count)
attr source packetDropReasonIsNoPortFound(packetDropped)
attr title "packets dropped (wrong port), count"
vector 89 SmartSubstationTopology.stationB_Camera3.udp droppedPkBadChecksum:vector(count) ETV
attr interpolationmode none
attr recordingmode vector(count)
attr source packetDropReasonIsIncorrectlyReceived(packetDropped)
attr title "packets dropped (checksum error), count"
vector 90 SmartSubstationTopology.stationB_Camera4.udp passedUpPk:vector(count) ETV
attr interpolationmode none
attr recordingmode vector(count)
attr source packetSentToUpper
attr title "packets passed up, count"
vector 91 SmartSubstationTopology.stationB_Camera4.udp droppedPkWrongPort:vector(count) ETV
attr interpolationmode none
attr recordingmode vector(count)
attr source packetDropReasonIsNoPortFound(packetDropped)
attr title "packets dropped (wrong port), count"
vector 92 SmartSubstationTopology.stationB_Camera4.udp droppedPkBadChecksum:vector(count) ETV
attr interpolationmode none
attr recordingmode vector(count)
attr source packetDropReasonIsIncorrectlyReceived(packetDropped)
attr title "packets dropped (checksum error), count"
vector 93 SmartSubstationTopology.stationB_Camera5.udp passedUpPk:vector(count) ETV
attr interpolationmode none
attr recordingmode vector(count)
attr source packetSentToUpper
attr title "packets passed up, count"
vector 94 SmartSubstationTopology.stationB_Camera5.udp droppedPkWrongPort:vector(count) ETV
attr interpolationmode none
attr recordingmode vector(count)
attr source packetDropReasonIsNoPortFound(packetDropped)
attr title "packets dropped (wrong port), count"
vector 95 SmartSubstationTopology.stationB_Camera5.udp droppedPkBadChecksum:vector(count) ETV
attr interpolationmode none
attr recordingmode vector(count)
attr source packetDropReasonIsIncorrectlyReceived(packetDropped)
attr title "packets dropped (checksum error), count"
vector 96 SmartSubstationTopology.stationB_Camera6.udp passedUpPk:vector(count) ETV
attr interpolationmode none
attr recordingmode vector(count)
attr source packetSentToUpper
attr title "packets passed up, count"
vector 97 SmartSubstationTopology.stationB_Camera6.udp droppedPkWrongPort:vector(count) ETV
attr interpolationmode none
attr recordingmode vector(count)
attr source packetDropReasonIsNoPortFound(packetDropped)
attr title "packets dropped (wrong port), count"
vector 98 SmartSubstationTopology.stationB_Camera6.udp droppedPkBadChecksum:vector(count) ETV
attr interpolationmode none
attr recordingmode vector(count)
attr source packetDropReasonIsIncorrectlyReceived(packetDropped)
attr title "packets dropped (checksum error), count"
vector 99 SmartSubstationTopology.stationB_Camera7.udp passedUpPk:vector(count) ETV
attr interpolationmode none
attr recordingmode vector(count)
attr source packetSentToUpper
attr title "packets passed up, count"
vector 100 SmartSubstationTopology.stationB_Camera7.udp droppedPkWrongPort:vector(count) ETV
attr interpolationmode none
attr recordingmode vector(count)
attr source packetDropReasonIsNoPortFound(packetDropped)
attr title "packets dropped (wrong port), count"
vector 101 SmartSubstationTopology.stationB_Camera7.udp droppedPkBadChecksum:vector(count) ETV
attr interpolationmode none
attr recordingmode vector(count)
attr source packetDropReasonIsIncorrectlyReceived(packetDropped)
attr title "packets dropped (checksum error), count"
vector 102 SmartSubstationTopology.stationB_Camera8.udp passedUpPk:vector(count) ETV
attr interpolationmode none
attr recordingmode vector(count)
attr source packetSentToUpper
attr title "packets passed up, count"
vector 103 SmartSubstationTopology.stationB_Camera8.udp droppedPkWrongPort:vector(count) ETV
attr interpolationmode none
attr recordingmode vector(count)
attr source packetDropReasonIsNoPortFound(packetDropped)
attr title "packets dropped (wrong port), count"
vector 104 SmartSubstationTopology.stationB_Camera8.udp droppedPkBadChecksum:vector(count) ETV
attr interpolationmode none
attr recordingmode vector(count)
attr source packetDropReasonIsIncorrectlyReceived(packetDropped)
attr title "packets dropped (checksum error), count"
vector 105 SmartSubstationTopology.stationB_Camera9.udp passedUpPk:vector(count) ETV
attr interpolationmode none
attr recordingmode vector(count)
attr source packetSentToUpper
attr title "packets passed up, count"
vector 106 SmartSubstationTopology.stationB_Camera9.udp droppedPkWrongPort:vector(count) ETV
attr interpolationmode none
attr recordingmode vector(count)
attr source packetDropReasonIsNoPortFound(packetDropped)
attr title "packets dropped (wrong port), count"
vector 107 SmartSubstationTopology.stationB_Camera9.udp droppedPkBadChecksum:vector(count) ETV
attr interpolationmode none
attr recordingmode vector(count)
attr source packetDropReasonIsIncorrectlyReceived(packetDropped)
attr title "packets dropped (checksum error), count"
vector 108 SmartSubstationTopology.stationB_Camera10.udp passedUpPk:vector(count) ETV
attr interpolationmode none
attr recordingmode vector(count)
attr source packetSentToUpper
attr title "packets passed up, count"
vector 109 SmartSubstationTopology.stationB_Camera10.udp droppedPkWrongPort:vector(count) ETV
attr interpolationmode none
attr recordingmode vector(count)
attr source packetDropReasonIsNoPortFound(packetDropped)
attr title "packets dropped (wrong port), count"
vector 110 SmartSubstationTopology.stationB_Camera10.udp droppedPkBadChecksum:vector(count) ETV
attr interpolationmode none
attr recordingmode vector(count)
attr source packetDropReasonIsIncorrectlyReceived(packetDropped)
attr title "packets dropped (checksum error), count"
vector 111 SmartSubstationTopology.stationB_VoIP1.udp passedUpPk:vector(count) ETV
attr interpolationmode none
attr recordingmode vector(count)
attr source packetSentToUpper
attr title "packets passed up, count"
vector 112 SmartSubstationTopology.stationB_VoIP1.udp droppedPkWrongPort:vector(count) ETV
attr interpolationmode none
attr recordingmode vector(count)
attr source packetDropReasonIsNoPortFound(packetDropped)
attr title "packets dropped (wrong port), count"
vector 113 SmartSubstationTopology.stationB_VoIP1.udp droppedPkBadChecksum:vector(count) ETV
attr interpolationmode none
attr recordingmode vector(count)
attr source packetDropReasonIsIncorrectlyReceived(packetDropped)
attr title "packets dropped (checksum error), count"
vector 114 SmartSubstationTopology.stationB_VoIP2.udp passedUpPk:vector(count) ETV
attr interpolationmode none
attr recordingmode vector(count)
attr source packetSentToUpper
attr title "packets passed up, count"
vector 115 SmartSubstationTopology.stationB_VoIP2.udp droppedPkWrongPort:vector(count) ETV
attr interpolationmode none
attr recordingmode vector(count)
attr source packetDropReasonIsNoPortFound(packetDropped)
attr title "packets dropped (wrong port), count"
vector 116 SmartSubstationTopology.stationB_VoIP2.udp droppedPkBadChecksum:vector(count) ETV
attr interpolationmode none
attr recordingmode vector(count)
attr source packetDropReasonIsIncorrectlyReceived(packetDropped)
attr title "packets dropped (checksum error), count"
vector 117 SmartSubstationTopology.stationB_OMServer.udp passedUpPk:vector(count) ETV
attr interpolationmode none
attr recordingmode vector(count)
attr source packetSentToUpper
attr title "packets passed up, count"
vector 118 SmartSubstationTopology.stationB_OMServer.udp droppedPkWrongPort:vector(count) ETV
attr interpolationmode none
attr recordingmode vector(count)
attr source packetDropReasonIsNoPortFound(packetDropped)
attr title "packets dropped (wrong port), count"
vector 119 SmartSubstationTopology.stationB_OMServer.udp droppedPkBadChecksum:vector(count) ETV
attr interpolationmode none
attr recordingmode vector(count)
attr source packetDropReasonIsIncorrectlyReceived(packetDropped)
attr title "packets dropped (checksum error), count"
vector 120 SmartSubstationTopology.borderGateway1.udp passedUpPk:vector(count) ETV
attr interpolationmode none
attr recordingmode vector(count)
attr source packetSentToUpper
attr title "packets passed up, count"
vector 121 SmartSubstationTopology.borderGateway1.udp droppedPkWrongPort:vector(count) ETV
attr interpolationmode none
attr recordingmode vector(count)
attr source packetDropReasonIsNoPortFound(packetDropped)
attr title "packets dropped (wrong port), count"
vector 122 SmartSubstationTopology.borderGateway1.udp droppedPkBadChecksum:vector(count) ETV
attr interpolationmode none
attr recordingmode vector(count)
attr source packetDropReasonIsIncorrectlyReceived(packetDropped)
attr title "packets dropped (checksum error), count"
vector 123 SmartSubstationTopology.borderGateway2.udp passedUpPk:vector(count) ETV
attr interpolationmode none
attr recordingmode vector(count)
attr source packetSentToUpper
attr title "packets passed up, count"
vector 124 SmartSubstationTopology.borderGateway2.udp droppedPkWrongPort:vector(count) ETV
attr interpolationmode none
attr recordingmode vector(count)
attr source packetDropReasonIsNoPortFound(packetDropped)
attr title "packets dropped (wrong port), count"
vector 125 SmartSubstationTopology.borderGateway2.udp droppedPkBadChecksum:vector(count) ETV
attr interpolationmode none
attr recordingmode vector(count)
attr source packetDropReasonIsIncorrectlyReceived(packetDropped)
attr title "packets dropped (checksum error), count"
vector 126 SmartSubstationTopology.otnDevice.udp passedUpPk:vector(count) ETV
attr interpolationmode none
attr recordingmode vector(count)
attr source packetSentToUpper
attr title "packets passed up, count"
vector 127 SmartSubstationTopology.otnDevice.udp droppedPkWrongPort:vector(count) ETV
attr interpolationmode none
attr recordingmode vector(count)
attr source packetDropReasonIsNoPortFound(packetDropped)
attr title "packets dropped (wrong port), count"
vector 128 SmartSubstationTopology.otnDevice.udp droppedPkBadChecksum:vector(count) ETV
attr interpolationmode none
attr recordingmode vector(count)
attr source packetDropReasonIsIncorrectlyReceived(packetDropped)
attr title "packets dropped (checksum error), count"
vector 129 SmartSubstationTopology.stationA_TSN.ieee8021q.qTagHeaderChecker droppedDataRate:vector ETV
attr interpolationmode linear
attr recordingmode vector
attr source throughput(packetDropped)
attr title "dropped data rate"
attr unit bps
vector 130 SmartSubstationTopology.stationA_TSN.ieee8021r.rTagHeaderChecker droppedDataRate:vector ETV
attr interpolationmode linear
attr recordingmode vector
attr source throughput(packetDropped)
attr title "dropped data rate"
attr unit bps
vector 131 SmartSubstationTopology.stationA_TSN.eth[0].queue outgoingDataRate:vector ETV
attr interpolationmode linear
attr recordingmode vector
attr source throughput(packetPulled)
attr title "outgoing datarate"
attr unit bps
vector 132 SmartSubstationTopology.stationA_TSN.eth[0].queue incomingDataRate:vector ETV
attr interpolationmode linear
attr recordingmode vector
attr source throughput(packetPushStarted)
attr title "incoming datarate"
attr unit bps
vector 133 SmartSubstationTopology.stationA_TSN.eth[1].queue outgoingDataRate:vector ETV
attr interpolationmode linear
attr recordingmode vector
attr source throughput(packetPulled)
attr title "outgoing datarate"
attr unit bps
vector 134 SmartSubstationTopology.stationA_TSN.eth[1].queue incomingDataRate:vector ETV
attr interpolationmode linear
attr recordingmode vector
attr source throughput(packetPushStarted)
attr title "incoming datarate"
attr unit bps
vector 135 SmartSubstationTopology.stationA_TSN.eth[2].queue outgoingDataRate:vector ETV
attr interpolationmode linear
attr recordingmode vector
attr source throughput(packetPulled)
attr title "outgoing datarate"
attr unit bps
vector 136 SmartSubstationTopology.stationA_TSN.eth[2].queue incomingDataRate:vector ETV
attr interpolationmode linear
attr recordingmode vector
attr source throughput(packetPushStarted)
attr title "incoming datarate"
attr unit bps
vector 137 SmartSubstationTopology.stationA_TSN.eth[3].queue outgoingDataRate:vector ETV
attr interpolationmode linear
attr recordingmode vector
attr source throughput(packetPulled)
attr title "outgoing datarate"
attr unit bps
vector 138 SmartSubstationTopology.stationA_TSN.eth[3].queue incomingDataRate:vector ETV
attr interpolationmode linear
attr recordingmode vector
attr source throughput(packetPushStarted)
attr title "incoming datarate"
attr unit bps
vector 139 SmartSubstationTopology.stationA_TSN.eth[4].queue outgoingDataRate:vector ETV
attr interpolationmode linear
attr recordingmode vector
attr source throughput(packetPulled)
attr title "outgoing datarate"
attr unit bps
vector 140 SmartSubstationTopology.stationA_TSN.eth[4].queue incomingDataRate:vector ETV
attr interpolationmode linear
attr recordingmode vector
attr source throughput(packetPushStarted)
attr title "incoming datarate"
attr unit bps
vector 141 SmartSubstationTopology.stationA_TSN.eth[5].queue outgoingDataRate:vector ETV
attr interpolationmode linear
attr recordingmode vector
attr source throughput(packetPulled)
attr title "outgoing datarate"
attr unit bps
vector 142 SmartSubstationTopology.stationA_TSN.eth[5].queue incomingDataRate:vector ETV
attr interpolationmode linear
attr recordingmode vector
attr source throughput(packetPushStarted)
attr title "incoming datarate"
attr unit bps
vector 143 SmartSubstationTopology.stationA_TSN.eth[6].queue outgoingDataRate:vector ETV
attr interpolationmode linear
attr recordingmode vector
attr source throughput(packetPulled)
attr title "outgoing datarate"
attr unit bps
vector 144 SmartSubstationTopology.stationA_TSN.eth[6].queue incomingDataRate:vector ETV
attr interpolationmode linear
attr recordingmode vector
attr source throughput(packetPushStarted)
attr title "incoming datarate"
attr unit bps
vector 145 SmartSubstationTopology.stationA_TSN.eth[7].queue outgoingDataRate:vector ETV
attr interpolationmode linear
attr recordingmode vector
attr source throughput(packetPulled)
attr title "outgoing datarate"
attr unit bps
vector 146 SmartSubstationTopology.stationA_TSN.eth[7].queue incomingDataRate:vector ETV
attr interpolationmode linear
attr recordingmode vector
attr source throughput(packetPushStarted)
attr title "incoming datarate"
attr unit bps
vector 147 SmartSubstationTopology.stationA_TSN.eth[8].queue outgoingDataRate:vector ETV
attr interpolationmode linear
attr recordingmode vector
attr source throughput(packetPulled)
attr title "outgoing datarate"
attr unit bps
vector 148 SmartSubstationTopology.stationA_TSN.eth[8].queue incomingDataRate:vector ETV
attr interpolationmode linear
attr recordingmode vector
attr source throughput(packetPushStarted)
attr title "incoming datarate"
attr unit bps
vector 149 SmartSubstationTopology.stationA_TSN.eth[9].queue outgoingDataRate:vector ETV
attr interpolationmode linear
attr recordingmode vector
attr source throughput(packetPulled)
attr title "outgoing datarate"
attr unit bps
vector 150 SmartSubstationTopology.stationA_TSN.eth[9].queue incomingDataRate:vector ETV
attr interpolationmode linear
attr recordingmode vector
attr source throughput(packetPushStarted)
attr title "incoming datarate"
attr unit bps
vector 151 SmartSubstationTopology.stationA_TSN.eth[10].queue outgoingDataRate:vector ETV
attr interpolationmode linear
attr recordingmode vector
attr source throughput(packetPulled)
attr title "outgoing datarate"
attr unit bps
vector 152 SmartSubstationTopology.stationA_TSN.eth[10].queue incomingDataRate:vector ETV
attr interpolationmode linear
attr recordingmode vector
attr source throughput(packetPushStarted)
attr title "incoming datarate"
attr unit bps
vector 153 SmartSubstationTopology.stationA_TSN.eth[11].queue outgoingDataRate:vector ETV
attr interpolationmode linear
attr recordingmode vector
attr source throughput(packetPulled)
attr title "outgoing datarate"
attr unit bps
vector 154 SmartSubstationTopology.stationA_TSN.eth[11].queue incomingDataRate:vector ETV
attr interpolationmode linear
attr recordingmode vector
attr source throughput(packetPushStarted)
attr title "incoming datarate"
attr unit bps
vector 155 SmartSubstationTopology.stationA_TSN.eth[12].queue outgoingDataRate:vector ETV
attr interpolationmode linear
attr recordingmode vector
attr source throughput(packetPulled)
attr title "outgoing datarate"
attr unit bps
vector 156 SmartSubstationTopology.stationA_TSN.eth[12].queue incomingDataRate:vector ETV
attr interpolationmode linear
attr recordingmode vector
attr source throughput(packetPushStarted)
attr title "incoming datarate"
attr unit bps
vector 157 SmartSubstationTopology.stationA_TSN.eth[13].queue outgoingDataRate:vector ETV
attr interpolationmode linear
attr recordingmode vector
attr source throughput(packetPulled)
attr title "outgoing datarate"
attr unit bps
vector 158 SmartSubstationTopology.stationA_TSN.eth[13].queue incomingDataRate:vector ETV
attr interpolationmode linear
attr recordingmode vector
attr source throughput(packetPushStarted)
attr title "incoming datarate"
attr unit bps
vector 159 SmartSubstationTopology.stationA_TSN.eth[14].queue outgoingDataRate:vector ETV
attr interpolationmode linear
attr recordingmode vector
attr source throughput(packetPulled)
attr title "outgoing datarate"
attr unit bps
vector 160 SmartSubstationTopology.stationA_TSN.eth[14].queue incomingDataRate:vector ETV
attr interpolationmode linear
attr recordingmode vector
attr source throughput(packetPushStarted)
attr title "incoming datarate"
attr unit bps
vector 161 SmartSubstationTopology.stationA_TSN.eth[15].queue outgoingDataRate:vector ETV
attr interpolationmode linear
attr recordingmode vector
attr source throughput(packetPulled)
attr title "outgoing datarate"
attr unit bps
vector 162 SmartSubstationTopology.stationA_TSN.eth[15].queue incomingDataRate:vector ETV
attr interpolationmode linear
attr recordingmode vector
attr source throughput(packetPushStarted)
attr title "incoming datarate"
attr unit bps
vector 163 SmartSubstationTopology.stationA_TSN.eth[16].queue outgoingDataRate:vector ETV
attr interpolationmode linear
attr recordingmode vector
attr source throughput(packetPulled)
attr title "outgoing datarate"
attr unit bps
vector 164 SmartSubstationTopology.stationA_TSN.eth[16].queue incomingDataRate:vector ETV
attr interpolationmode linear
attr recordingmode vector
attr source throughput(packetPushStarted)
attr title "incoming datarate"
attr unit bps
vector 165 SmartSubstationTopology.stationA_TSN.eth[17].queue outgoingDataRate:vector ETV
attr interpolationmode linear
attr recordingmode vector
attr source throughput(packetPulled)
attr title "outgoing datarate"
attr unit bps
vector 166 SmartSubstationTopology.stationA_TSN.eth[17].queue incomingDataRate:vector ETV
attr interpolationmode linear
attr recordingmode vector
attr source throughput(packetPushStarted)
attr title "incoming datarate"
attr unit bps
vector 167 SmartSubstationTopology.stationA_TSN.eth[18].queue outgoingDataRate:vector ETV
attr interpolationmode linear
attr recordingmode vector
attr source throughput(packetPulled)
attr title "outgoing datarate"
attr unit bps
vector 168 SmartSubstationTopology.stationA_TSN.eth[18].queue incomingDataRate:vector ETV
attr interpolationmode linear
attr recordingmode vector
attr source throughput(packetPushStarted)
attr title "incoming datarate"
attr unit bps
vector 169 SmartSubstationTopology.stationA_TSN.eth[19].queue outgoingDataRate:vector ETV
attr interpolationmode linear
attr recordingmode vector
attr source throughput(packetPulled)
attr title "outgoing datarate"
attr unit bps
vector 170 SmartSubstationTopology.stationA_TSN.eth[19].queue incomingDataRate:vector ETV
attr interpolationmode linear
attr recordingmode vector
attr source throughput(packetPushStarted)
attr title "incoming datarate"
attr unit bps
vector 171 SmartSubstationTopology.stationA_TSN.eth[20].queue outgoingDataRate:vector ETV
attr interpolationmode linear
attr recordingmode vector
attr source throughput(packetPulled)
attr title "outgoing datarate"
attr unit bps
vector 172 SmartSubstationTopology.stationA_TSN.eth[20].queue incomingDataRate:vector ETV
attr interpolationmode linear
attr recordingmode vector
attr source throughput(packetPushStarted)
attr title "incoming datarate"
attr unit bps
vector 173 SmartSubstationTopology.stationA_MU.eth[0].queue outgoingDataRate:vector ETV
attr interpolationmode linear
attr recordingmode vector
attr source throughput(packetPulled)
attr title "outgoing datarate"
attr unit bps
vector 174 SmartSubstationTopology.stationA_MU.eth[0].queue incomingDataRate:vector ETV
attr interpolationmode linear
attr recordingmode vector
attr source throughput(packetPushStarted)
attr title "incoming datarate"
attr unit bps
vector 175 SmartSubstationTopology.stationA_MU.app[0] throughput:vector ETV
attr recordingmode vector
attr source throughput(packetReceived)
attr title throughput
attr unit bps
vector 176 SmartSubstationTopology.stationA_Protection.eth[0].queue outgoingDataRate:vector ETV
attr interpolationmode linear
attr recordingmode vector
attr source throughput(packetPulled)
attr title "outgoing datarate"
attr unit bps
vector 177 SmartSubstationTopology.stationA_Protection.eth[0].queue incomingDataRate:vector ETV
attr interpolationmode linear
attr recordingmode vector
attr source throughput(packetPushStarted)
attr title "incoming datarate"
attr unit bps
vector 178 SmartSubstationTopology.stationA_Protection.app[0] throughput:vector ETV
attr recordingmode vector
attr source throughput(packetReceived)
attr title throughput
attr unit bps
vector 179 SmartSubstationTopology.stationA_IT.eth[0].queue outgoingDataRate:vector ETV
attr interpolationmode linear
attr recordingmode vector
attr source throughput(packetPulled)
attr title "outgoing datarate"
attr unit bps
vector 180 SmartSubstationTopology.stationA_IT.eth[0].queue incomingDataRate:vector ETV
attr interpolationmode linear
attr recordingmode vector
attr source throughput(packetPushStarted)
attr title "incoming datarate"
attr unit bps
vector 181 SmartSubstationTopology.stationA_IT.app[0] throughput:vector ETV
attr recordingmode vector
attr source throughput(packetReceived)
attr title throughput
attr unit bps
vector 182 SmartSubstationTopology.stationA_BusProtection_MU1.eth[0].queue outgoingDataRate:vector ETV
attr interpolationmode linear
attr recordingmode vector
attr source throughput(packetPulled)
attr title "outgoing datarate"
attr unit bps
vector 183 SmartSubstationTopology.stationA_BusProtection_MU1.eth[0].queue incomingDataRate:vector ETV
attr interpolationmode linear
attr recordingmode vector
attr source throughput(packetPushStarted)
attr title "incoming datarate"
attr unit bps
vector 184 SmartSubstationTopology.stationA_BusProtection_MU1.app[0] throughput:vector ETV
attr recordingmode vector
attr source throughput(packetReceived)
attr title throughput
attr unit bps
vector 185 SmartSubstationTopology.stationA_BusProtection_MU2.eth[0].queue outgoingDataRate:vector ETV
attr interpolationmode linear
attr recordingmode vector
attr source throughput(packetPulled)
attr title "outgoing datarate"
attr unit bps
vector 186 SmartSubstationTopology.stationA_BusProtection_MU2.eth[0].queue incomingDataRate:vector ETV
attr interpolationmode linear
attr recordingmode vector
attr source throughput(packetPushStarted)
attr title "incoming datarate"
attr unit bps
vector 187 SmartSubstationTopology.stationA_BusProtection_MU2.app[0] throughput:vector ETV
attr recordingmode vector
attr source throughput(packetReceived)
attr title throughput
attr unit bps
vector 188 SmartSubstationTopology.stationA_BusProtection_MU3.eth[0].queue outgoingDataRate:vector ETV
attr interpolationmode linear
attr recordingmode vector
attr source throughput(packetPulled)
attr title "outgoing datarate"
attr unit bps
vector 189 SmartSubstationTopology.stationA_BusProtection_MU3.eth[0].queue incomingDataRate:vector ETV
attr interpolationmode linear
attr recordingmode vector
attr source throughput(packetPushStarted)
attr title "incoming datarate"
attr unit bps
vector 190 SmartSubstationTopology.stationA_BusProtection_MU3.app[0] throughput:vector ETV
attr recordingmode vector
attr source throughput(packetReceived)
attr title throughput
attr unit bps
vector 191 SmartSubstationTopology.stationA_BusProtection.eth[0].queue outgoingDataRate:vector ETV
attr interpolationmode linear
attr recordingmode vector
attr source throughput(packetPulled)
attr title "outgoing datarate"
attr unit bps
vector 192 SmartSubstationTopology.stationA_BusProtection.eth[0].queue incomingDataRate:vector ETV
attr interpolationmode linear
attr recordingmode vector
attr source throughput(packetPushStarted)
attr title "incoming datarate"
attr unit bps
vector 193 SmartSubstationTopology.stationA_BusProtection.app[0] throughput:vector ETV
attr recordingmode vector
attr source throughput(packetReceived)
attr title throughput
attr unit bps
vector 194 SmartSubstationTopology.stationA_Camera1.eth[0].queue outgoingDataRate:vector ETV
attr interpolationmode linear
attr recordingmode vector
attr source throughput(packetPulled)
attr title "outgoing datarate"
attr unit bps
vector 195 SmartSubstationTopology.stationA_Camera1.eth[0].queue incomingDataRate:vector ETV
attr interpolationmode linear
attr recordingmode vector
attr source throughput(packetPushStarted)
attr title "incoming datarate"
attr unit bps
vector 196 SmartSubstationTopology.stationA_Camera1.app[0] throughput:vector ETV
attr recordingmode vector
attr source throughput(packetReceived)
attr title throughput
attr unit bps
vector 197 SmartSubstationTopology.stationA_Camera2.eth[0].queue outgoingDataRate:vector ETV
attr interpolationmode linear
attr recordingmode vector
attr source throughput(packetPulled)
attr title "outgoing datarate"
attr unit bps
vector 198 SmartSubstationTopology.stationA_Camera2.eth[0].queue incomingDataRate:vector ETV
attr interpolationmode linear
attr recordingmode vector
attr source throughput(packetPushStarted)
attr title "incoming datarate"
attr unit bps
vector 199 SmartSubstationTopology.stationA_Camera2.app[0] throughput:vector ETV
attr recordingmode vector
attr source throughput(packetReceived)
attr title throughput
attr unit bps
vector 200 SmartSubstationTopology.stationA_Camera3.eth[0].queue outgoingDataRate:vector ETV
attr interpolationmode linear
attr recordingmode vector
attr source throughput(packetPulled)
attr title "outgoing datarate"
attr unit bps
vector 201 SmartSubstationTopology.stationA_Camera3.eth[0].queue incomingDataRate:vector ETV
attr interpolationmode linear
attr recordingmode vector
attr source throughput(packetPushStarted)
attr title "incoming datarate"
attr unit bps
vector 202 SmartSubstationTopology.stationA_Camera3.app[0] throughput:vector ETV
attr recordingmode vector
attr source throughput(packetReceived)
attr title throughput
attr unit bps
vector 203 SmartSubstationTopology.stationA_Camera4.eth[0].queue outgoingDataRate:vector ETV
attr interpolationmode linear
attr recordingmode vector
attr source throughput(packetPulled)
attr title "outgoing datarate"
attr unit bps
vector 204 SmartSubstationTopology.stationA_Camera4.eth[0].queue incomingDataRate:vector ETV
attr interpolationmode linear
attr recordingmode vector
attr source throughput(packetPushStarted)
attr title "incoming datarate"
attr unit bps
vector 205 SmartSubstationTopology.stationA_Camera4.app[0] throughput:vector ETV
attr recordingmode vector
attr source throughput(packetReceived)
attr title throughput
attr unit bps
vector 206 SmartSubstationTopology.stationA_Camera5.eth[0].queue outgoingDataRate:vector ETV
attr interpolationmode linear
attr recordingmode vector
attr source throughput(packetPulled)
attr title "outgoing datarate"
attr unit bps
vector 207 SmartSubstationTopology.stationA_Camera5.eth[0].queue incomingDataRate:vector ETV
attr interpolationmode linear
attr recordingmode vector
attr source throughput(packetPushStarted)
attr title "incoming datarate"
attr unit bps
vector 208 SmartSubstationTopology.stationA_Camera5.app[0] throughput:vector ETV
attr recordingmode vector
attr source throughput(packetReceived)
attr title throughput
attr unit bps
vector 209 SmartSubstationTopology.stationA_Camera6.eth[0].queue outgoingDataRate:vector ETV
attr interpolationmode linear
attr recordingmode vector
attr source throughput(packetPulled)
attr title "outgoing datarate"
attr unit bps
vector 210 SmartSubstationTopology.stationA_Camera6.eth[0].queue incomingDataRate:vector ETV
attr interpolationmode linear
attr recordingmode vector
attr source throughput(packetPushStarted)
attr title "incoming datarate"
attr unit bps
vector 211 SmartSubstationTopology.stationA_Camera6.app[0] throughput:vector ETV
attr recordingmode vector
attr source throughput(packetReceived)
attr title throughput
attr unit bps
vector 212 SmartSubstationTopology.stationA_Camera7.eth[0].queue outgoingDataRate:vector ETV
attr interpolationmode linear
attr recordingmode vector
attr source throughput(packetPulled)
attr title "outgoing datarate"
attr unit bps
vector 213 SmartSubstationTopology.stationA_Camera7.eth[0].queue incomingDataRate:vector ETV
attr interpolationmode linear
attr recordingmode vector
attr source throughput(packetPushStarted)
attr title "incoming datarate"
attr unit bps
vector 214 SmartSubstationTopology.stationA_Camera7.app[0] throughput:vector ETV
attr recordingmode vector
attr source throughput(packetReceived)
attr title throughput
attr unit bps
vector 215 SmartSubstationTopology.stationA_Camera8.eth[0].queue outgoingDataRate:vector ETV
attr interpolationmode linear
attr recordingmode vector
attr source throughput(packetPulled)
attr title "outgoing datarate"
attr unit bps
vector 216 SmartSubstationTopology.stationA_Camera8.eth[0].queue incomingDataRate:vector ETV
attr interpolationmode linear
attr recordingmode vector
attr source throughput(packetPushStarted)
attr title "incoming datarate"
attr unit bps
vector 217 SmartSubstationTopology.stationA_Camera8.app[0] throughput:vector ETV
attr recordingmode vector
attr source throughput(packetReceived)
attr title throughput
attr unit bps
vector 218 SmartSubstationTopology.stationA_Camera9.eth[0].queue outgoingDataRate:vector ETV
attr interpolationmode linear
attr recordingmode vector
attr source throughput(packetPulled)
attr title "outgoing datarate"
attr unit bps
vector 219 SmartSubstationTopology.stationA_Camera9.eth[0].queue incomingDataRate:vector ETV
attr interpolationmode linear
attr recordingmode vector
attr source throughput(packetPushStarted)
attr title "incoming datarate"
attr unit bps
vector 220 SmartSubstationTopology.stationA_Camera9.app[0] throughput:vector ETV
attr recordingmode vector
attr source throughput(packetReceived)
attr title throughput
attr unit bps
vector 221 SmartSubstationTopology.stationA_Camera10.eth[0].queue outgoingDataRate:vector ETV
attr interpolationmode linear
attr recordingmode vector
attr source throughput(packetPulled)
attr title "outgoing datarate"
attr unit bps
vector 222 SmartSubstationTopology.stationA_Camera10.eth[0].queue incomingDataRate:vector ETV
attr interpolationmode linear
attr recordingmode vector
attr source throughput(packetPushStarted)
attr title "incoming datarate"
attr unit bps
vector 223 SmartSubstationTopology.stationA_Camera10.app[0] throughput:vector ETV
attr recordingmode vector
attr source throughput(packetReceived)
attr title throughput
attr unit bps
vector 224 SmartSubstationTopology.stationA_VoIP1.eth[0].queue outgoingDataRate:vector ETV
attr interpolationmode linear
attr recordingmode vector
attr source throughput(packetPulled)
attr title "outgoing datarate"
attr unit bps
vector 225 SmartSubstationTopology.stationA_VoIP1.eth[0].queue incomingDataRate:vector ETV
attr interpolationmode linear
attr recordingmode vector
attr source throughput(packetPushStarted)
attr title "incoming datarate"
attr unit bps
vector 226 SmartSubstationTopology.stationA_VoIP1.app[0] throughput:vector ETV
attr recordingmode vector
attr source throughput(packetReceived)
attr title throughput
attr unit bps
vector 227 SmartSubstationTopology.stationA_VoIP2.eth[0].queue outgoingDataRate:vector ETV
attr interpolationmode linear
attr recordingmode vector
attr source throughput(packetPulled)
attr title "outgoing datarate"
attr unit bps
vector 228 SmartSubstationTopology.stationA_VoIP2.eth[0].queue incomingDataRate:vector ETV
attr interpolationmode linear
attr recordingmode vector
attr source throughput(packetPushStarted)
attr title "incoming datarate"
attr unit bps
vector 229 SmartSubstationTopology.stationA_VoIP2.app[0] throughput:vector ETV
attr recordingmode vector
attr source throughput(packetReceived)
attr title throughput
attr unit bps
vector 230 SmartSubstationTopology.stationA_OMServer.eth[0].queue outgoingDataRate:vector ETV
attr interpolationmode linear
attr recordingmode vector
attr source throughput(packetPulled)
attr title "outgoing datarate"
attr unit bps
vector 231 SmartSubstationTopology.stationA_OMServer.eth[0].queue incomingDataRate:vector ETV
attr interpolationmode linear
attr recordingmode vector
attr source throughput(packetPushStarted)
attr title "incoming datarate"
attr unit bps
vector 232 SmartSubstationTopology.stationA_OMServer.app[0] throughput:vector ETV
attr recordingmode vector
attr source throughput(packetReceived)
attr title throughput
attr unit bps
vector 233 SmartSubstationTopology.stationB_TSN.ieee8021q.qTagHeaderChecker droppedDataRate:vector ETV
attr interpolationmode linear
attr recordingmode vector
attr source throughput(packetDropped)
attr title "dropped data rate"
attr unit bps
vector 234 SmartSubstationTopology.stationB_TSN.ieee8021r.rTagHeaderChecker droppedDataRate:vector ETV
attr interpolationmode linear
attr recordingmode vector
attr source throughput(packetDropped)
attr title "dropped data rate"
attr unit bps
vector 235 SmartSubstationTopology.stationB_TSN.eth[0].queue outgoingDataRate:vector ETV
attr interpolationmode linear
attr recordingmode vector
attr source throughput(packetPulled)
attr title "outgoing datarate"
attr unit bps
vector 236 SmartSubstationTopology.stationB_TSN.eth[0].queue incomingDataRate:vector ETV
attr interpolationmode linear
attr recordingmode vector
attr source throughput(packetPushStarted)
attr title "incoming datarate"
attr unit bps
vector 237 SmartSubstationTopology.stationB_TSN.eth[1].queue outgoingDataRate:vector ETV
attr interpolationmode linear
attr recordingmode vector
attr source throughput(packetPulled)
attr title "outgoing datarate"
attr unit bps
vector 238 SmartSubstationTopology.stationB_TSN.eth[1].queue incomingDataRate:vector ETV
attr interpolationmode linear
attr recordingmode vector
attr source throughput(packetPushStarted)
attr title "incoming datarate"
attr unit bps
vector 239 SmartSubstationTopology.stationB_TSN.eth[2].queue outgoingDataRate:vector ETV
attr interpolationmode linear
attr recordingmode vector
attr source throughput(packetPulled)
attr title "outgoing datarate"
attr unit bps
vector 240 SmartSubstationTopology.stationB_TSN.eth[2].queue incomingDataRate:vector ETV
attr interpolationmode linear
attr recordingmode vector
attr source throughput(packetPushStarted)
attr title "incoming datarate"
attr unit bps
vector 241 SmartSubstationTopology.stationB_TSN.eth[3].queue outgoingDataRate:vector ETV
attr interpolationmode linear
attr recordingmode vector
attr source throughput(packetPulled)
attr title "outgoing datarate"
attr unit bps
vector 242 SmartSubstationTopology.stationB_TSN.eth[3].queue incomingDataRate:vector ETV
attr interpolationmode linear
attr recordingmode vector
attr source throughput(packetPushStarted)
attr title "incoming datarate"
attr unit bps
vector 243 SmartSubstationTopology.stationB_TSN.eth[4].queue outgoingDataRate:vector ETV
attr interpolationmode linear
attr recordingmode vector
attr source throughput(packetPulled)
attr title "outgoing datarate"
attr unit bps
vector 244 SmartSubstationTopology.stationB_TSN.eth[4].queue incomingDataRate:vector ETV
attr interpolationmode linear
attr recordingmode vector
attr source throughput(packetPushStarted)
attr title "incoming datarate"
attr unit bps
vector 245 SmartSubstationTopology.stationB_TSN.eth[5].queue outgoingDataRate:vector ETV
attr interpolationmode linear
attr recordingmode vector
attr source throughput(packetPulled)
attr title "outgoing datarate"
attr unit bps
vector 246 SmartSubstationTopology.stationB_TSN.eth[5].queue incomingDataRate:vector ETV
attr interpolationmode linear
attr recordingmode vector
attr source throughput(packetPushStarted)
attr title "incoming datarate"
attr unit bps
vector 247 SmartSubstationTopology.stationB_TSN.eth[6].queue outgoingDataRate:vector ETV
attr interpolationmode linear
attr recordingmode vector
attr source throughput(packetPulled)
attr title "outgoing datarate"
attr unit bps
vector 248 SmartSubstationTopology.stationB_TSN.eth[6].queue incomingDataRate:vector ETV
attr interpolationmode linear
attr recordingmode vector
attr source throughput(packetPushStarted)
attr title "incoming datarate"
attr unit bps
vector 249 SmartSubstationTopology.stationB_TSN.eth[7].queue outgoingDataRate:vector ETV
attr interpolationmode linear
attr recordingmode vector
attr source throughput(packetPulled)
attr title "outgoing datarate"
attr unit bps
vector 250 SmartSubstationTopology.stationB_TSN.eth[7].queue incomingDataRate:vector ETV
attr interpolationmode linear
attr recordingmode vector
attr source throughput(packetPushStarted)
attr title "incoming datarate"
attr unit bps
vector 251 SmartSubstationTopology.stationB_TSN.eth[8].queue outgoingDataRate:vector ETV
attr interpolationmode linear
attr recordingmode vector
attr source throughput(packetPulled)
attr title "outgoing datarate"
attr unit bps
vector 252 SmartSubstationTopology.stationB_TSN.eth[8].queue incomingDataRate:vector ETV
attr interpolationmode linear
attr recordingmode vector
attr source throughput(packetPushStarted)
attr title "incoming datarate"
attr unit bps
vector 253 SmartSubstationTopology.stationB_TSN.eth[9].queue outgoingDataRate:vector ETV
attr interpolationmode linear
attr recordingmode vector
attr source throughput(packetPulled)
attr title "outgoing datarate"
attr unit bps
vector 254 SmartSubstationTopology.stationB_TSN.eth[9].queue incomingDataRate:vector ETV
attr interpolationmode linear
attr recordingmode vector
attr source throughput(packetPushStarted)
attr title "incoming datarate"
attr unit bps
vector 255 SmartSubstationTopology.stationB_TSN.eth[10].queue outgoingDataRate:vector ETV
attr interpolationmode linear
attr recordingmode vector
attr source throughput(packetPulled)
attr title "outgoing datarate"
attr unit bps
vector 256 SmartSubstationTopology.stationB_TSN.eth[10].queue incomingDataRate:vector ETV
attr interpolationmode linear
attr recordingmode vector
attr source throughput(packetPushStarted)
attr title "incoming datarate"
attr unit bps
vector 257 SmartSubstationTopology.stationB_TSN.eth[11].queue outgoingDataRate:vector ETV
attr interpolationmode linear
attr recordingmode vector
attr source throughput(packetPulled)
attr title "outgoing datarate"
attr unit bps
vector 258 SmartSubstationTopology.stationB_TSN.eth[11].queue incomingDataRate:vector ETV
attr interpolationmode linear
attr recordingmode vector
attr source throughput(packetPushStarted)
attr title "incoming datarate"
attr unit bps
vector 259 SmartSubstationTopology.stationB_TSN.eth[12].queue outgoingDataRate:vector ETV
attr interpolationmode linear
attr recordingmode vector
attr source throughput(packetPulled)
attr title "outgoing datarate"
attr unit bps
vector 260 SmartSubstationTopology.stationB_TSN.eth[12].queue incomingDataRate:vector ETV
attr interpolationmode linear
attr recordingmode vector
attr source throughput(packetPushStarted)
attr title "incoming datarate"
attr unit bps
vector 261 SmartSubstationTopology.stationB_TSN.eth[13].queue outgoingDataRate:vector ETV
attr interpolationmode linear
attr recordingmode vector
attr source throughput(packetPulled)
attr title "outgoing datarate"
attr unit bps
vector 262 SmartSubstationTopology.stationB_TSN.eth[13].queue incomingDataRate:vector ETV
attr interpolationmode linear
attr recordingmode vector
attr source throughput(packetPushStarted)
attr title "incoming datarate"
attr unit bps
vector 263 SmartSubstationTopology.stationB_TSN.eth[14].queue outgoingDataRate:vector ETV
attr interpolationmode linear
attr recordingmode vector
attr source throughput(packetPulled)
attr title "outgoing datarate"
attr unit bps
vector 264 SmartSubstationTopology.stationB_TSN.eth[14].queue incomingDataRate:vector ETV
attr interpolationmode linear
attr recordingmode vector
attr source throughput(packetPushStarted)
attr title "incoming datarate"
attr unit bps
vector 265 SmartSubstationTopology.stationB_TSN.eth[15].queue outgoingDataRate:vector ETV
attr interpolationmode linear
attr recordingmode vector
attr source throughput(packetPulled)
attr title "outgoing datarate"
attr unit bps
vector 266 SmartSubstationTopology.stationB_TSN.eth[15].queue incomingDataRate:vector ETV
attr interpolationmode linear
attr recordingmode vector
attr source throughput(packetPushStarted)
attr title "incoming datarate"
attr unit bps
vector 267 SmartSubstationTopology.stationB_TSN.eth[16].queue outgoingDataRate:vector ETV
attr interpolationmode linear
attr recordingmode vector
attr source throughput(packetPulled)
attr title "outgoing datarate"
attr unit bps
vector 268 SmartSubstationTopology.stationB_TSN.eth[16].queue incomingDataRate:vector ETV
attr interpolationmode linear
attr recordingmode vector
attr source throughput(packetPushStarted)
attr title "incoming datarate"
attr unit bps
vector 269 SmartSubstationTopology.stationB_TSN.eth[17].queue outgoingDataRate:vector ETV
attr interpolationmode linear
attr recordingmode vector
[...]
120	90841 11 0 0 0 0 1 0 0 0 0
121	90852 11 0 0 0 0 1 0 0 0 0
122	90863 11 0 0 0 0 1 0 0 0 0
123	90874 11 0 0 0 0 1 0 0 0 0
124	90885 11 0 0 0 0 1 0 0 0 0
125	90896 11 0 0 0 0 1 0 0 0 0
126	90907 11 0 0 0 0 1 0 0 0 0
127	90918 11 0 0 0 0 1 0 0 0 0
128	90929 11 0 0 0 0 1 0 0 0 0
129	90940 49302 115 115 0.1 300 3000 0 0 0 0
130	140242 49302 115 115 0.1 300 3000 0 0 0 0
131	189544 49302 115 115 0.1 300 3000 0 0 0 0
132	238846 49302 115 115 0.1 300 3000 0 0 0 0
133	288148 49302 115 115 0.1 300 3000 0 0 0 0
134	337450 49302 115 115 0.1 300 3000 0 0 0 0
135	386752 49302 115 115 0.1 300 3000 0 0 0 0
136	436054 49302 115 115 0.1 300 3000 0 0 0 0
137	485356 49302 115 115 0.1 300 3000 0 0 0 0
138	534658 49302 115 115 0.1 300 3000 0 0 0 0
139	583960 49302 115 115 0.1 300 3000 0 0 0 0
140	633262 49302 115 115 0.1 300 3000 0 0 0 0
141	682564 49302 115 115 0.1 300 3000 0 0 0 0
142	731866 49302 115 115 0.1 300 3000 0 0 0 0
143	781168 49302 115 115 0.1 300 3000 0 0 0 0
144	830470 49302 115 115 0.1 300 3000 0 0 0 0
145	879772 49302 115 115 0.1 300 3000 0 0 0 0
146	929074 49302 115 115 0.1 300 3000 0 0 0 0
147	978376 49302 115 115 0.1 300 3000 0 0 0 0
148	1027678 49302 115 115 0.1 300 3000 0 0 0 0
149	1076980 49302 115 115 0.1 300 3000 0 0 0 0
150	1126282 49302 115 115 0.1 300 3000 0 0 0 0
151	1175584 49302 115 115 0.1 300 3000 0 0 0 0
152	1224886 49302 115 115 0.1 300 3000 0 0 0 0
153	1274188 49302 115 115 0.1 300 3000 0 0 0 0
154	1323490 49302 115 115 0.1 300 3000 0 0 0 0
155	1372792 49302 115 115 0.1 300 3000 0 0 0 0
156	1422094 49302 115 115 0.1 300 3000 0 0 0 0
157	1471396 49302 115 115 0.1 300 3000 0 0 0 0
158	1520698 49302 115 115 0.1 300 3000 0 0 0 0
159	1570000 49302 115 115 0.1 300 3000 0 0 0 0
160	1619302 49302 115 115 0.1 300 3000 0 0 0 0
161	1668604 49302 115 115 0.1 300 3000 0 0 0 0
162	1717906 49302 115 115 0.1 300 3000 0 0 0 0
163	1767208 49302 115 115 0.1 300 3000 0 0 0 0
164	1816510 49302 115 115 0.1 300 3000 0 0 0 0
165	1865812 49302 115 115 0.1 300 3000 0 0 0 0
166	1915114 49302 115 115 0.1 300 3000 0 0 0 0
167	1964416 49302 115 115 0.1 300 3000 0 0 0 0
168	2013718 49302 115 115 0.1 300 3000 0 0 0 0
169	2063020 49302 115 115 0.1 300 3000 0 0 0 0
170	2112322 49302 115 115 0.1 300 3000 0 0 0 0
171	2161624 49302 115 115 0.1 300 3000 0 0 0 0
172	2210926 49302 115 115 0.1 300 3000 0 0 0 0
173	2260228 49302 115 115 0.1 300 3000 0 0 0 0
174	2309530 49302 115 115 0.1 300 3000 0 0 0 0
175	2358832 49302 115 115 0.1 300 3000 0 0 0 0
176	2408134 49302 115 115 0.1 300 3000 0 0 0 0
177	2457436 49302 115 115 0.1 300 3000 0 0 0 0
178	2506738 49302 115 115 0.1 300 3000 0 0 0 0
179	2556040 49302 115 115 0.1 300 3000 0 0 0 0
180	2605342 49302 115 115 0.1 300 3000 0 0 0 0
181	2654644 49302 115 115 0.1 300 3000 0 0 0 0
182	2703946 49302 115 115 0.1 300 3000 0 0 0 0
183	2753248 49302 115 115 0.1 300 3000 0 0 0 0
184	2802550 49302 115 115 0.1 300 3000 0 0 0 0
185	2851852 49302 115 115 0.1 300 3000 0 0 0 0
186	2901154 49302 115 115 0.1 300 3000 0 0 0 0
187	2950456 49302 115 115 0.1 300 3000 0 0 0 0
188	2999758 49302 115 115 0.1 300 3000 0 0 0 0
189	3049060 49302 115 115 0.1 300 3000 0 0 0 0
190	3098362 49302 115 115 0.1 300 3000 0 0 0 0
191	3147664 49302 115 115 0.1 300 3000 0 0 0 0
192	3196966 49302 115 115 0.1 300 3000 0 0 0 0
193	3246268 49302 115 115 0.1 300 3000 0 0 0 0
194	3295570 49302 115 115 0.1 300 3000 0 0 0 0
195	3344872 49302 115 115 0.1 300 3000 0 0 0 0
196	3394174 49302 115 115 0.1 300 3000 0 0 0 0
197	3443476 49302 115 115 0.1 300 3000 0 0 0 0
198	3492778 49302 115 115 0.1 300 3000 0 0 0 0
199	3542080 49302 115 115 0.1 300 3000 0 0 0 0
200	3591382 49302 115 115 0.1 300 3000 0 0 0 0
201	3640684 49302 115 115 0.1 300 3000 0 0 0 0
202	3689986 49302 115 115 0.1 300 3000 0 0 0 0
203	3739288 49302 115 115 0.1 300 3000 0 0 0 0
204	3788590 49302 115 115 0.1 300 3000 0 0 0 0
205	3837892 49302 115 115 0.1 300 3000 0 0 0 0
206	3887194 49302 115 115 0.1 300 3000 0 0 0 0
207	3936496 49302 115 115 0.1 300 3000 0 0 0 0
208	3985798 49302 115 115 0.1 300 3000 0 0 0 0
209	4035100 49302 115 115 0.1 300 3000 0 0 0 0
210	4084402 49302 115 115 0.1 300 3000 0 0 0 0
211	4133704 49302 115 115 0.1 300 3000 0 0 0 0
212	4183006 49302 115 115 0.1 300 3000 0 0 0 0
213	4232308 49302 115 115 0.1 300 3000 0 0 0 0
214	4281610 49302 115 115 0.1 300 3000 0 0 0 0
215	4330912 49302 115 115 0.1 300 3000 0 0 0 0
216	4380214 49302 115 115 0.1 300 3000 0 0 0 0
217	4429516 49302 115 115 0.1 300 3000 0 0 0 0
218	4478818 49302 115 115 0.1 300 3000 0 0 0 0
219	4528120 49302 115 115 0.1 300 3000 0 0 0 0
220	4577422 49302 115 115 0.1 300 3000 0 0 0 0
221	4626724 49302 115 115 0.1 300 3000 0 0 0 0
222	4676026 49302 115 115 0.1 300 3000 0 0 0 0
223	4725328 49302 115 115 0.1 300 3000 0 0 0 0
224	4774630 49302 115 115 0.1 300 3000 0 0 0 0
225	4823932 49302 115 115 0.1 300 3000 0 0 0 0
226	4873234 49302 115 115 0.1 300 3000 0 0 0 0
227	4922536 49302 115 115 0.1 300 3000 0 0 0 0
228	4971838 49302 115 115 0.1 300 3000 0 0 0 0
229	5021140 49302 115 115 0.1 300 3000 0 0 0 0
230	5070442 49302 115 115 0.1 300 3000 0 0 0 0
231	5119744 49302 115 115 0.1 300 3000 0 0 0 0
232	5169046 49302 115 115 0.1 300 3000 0 0 0 0
233	5218348 49302 115 115 0.1 300 3000 0 0 0 0
234	5267650 49302 115 115 0.1 300 3000 0 0 0 0
235	5316952 49302 115 115 0.1 300 3000 0 0 0 0
236	5366254 49302 115 115 0.1 300 3000 0 0 0 0
237	5415556 49302 115 115 0.1 300 3000 0 0 0 0
238	5464858 49302 115 115 0.1 300 3000 0 0 0 0
239	5514160 49302 115 115 0.1 300 3000 0 0 0 0
240	5563462 49302 115 115 0.1 300 3000 0 0 0 0
241	5612764 49302 115 115 0.1 300 3000 0 0 0 0
242	5662066 49302 115 115 0.1 300 3000 0 0 0 0
243	5711368 49302 115 115 0.1 300 3000 0 0 0 0
244	5760670 49302 115 115 0.1 300 3000 0 0 0 0
245	5809972 49302 115 115 0.1 300 3000 0 0 0 0
246	5859274 49302 115 115 0.1 300 3000 0 0 0 0
247	5908576 49302 115 115 0.1 300 3000 0 0 0 0
248	5957878 49302 115 115 0.1 300 3000 0 0 0 0
249	6007180 49302 115 115 0.1 300 3000 0 0 0 0
250	6056482 49302 115 115 0.1 300 3000 0 0 0 0
251	6105784 49302 115 115 0.1 300 3000 0 0 0 0
252	6155086 49302 115 115 0.1 300 3000 0 0 0 0
253	6204388 49302 115 115 0.1 300 3000 0 0 0 0
254	6253690 49302 115 115 0.1 300 3000 0 0 0 0
255	6302992 49302 115 115 0.1 300 3000 0 0 0 0
256	6352294 49302 115 115 0.1 300 3000 0 0 0 0
257	6401596 49302 115 115 0.1 300 3000 0 0 0 0
258	6450898 49302 115 115 0.1 300 3000 0 0 0 0
259	6500200 49302 115 115 0.1 300 3000 0 0 0 0
260	6549502 49302 115 115 0.1 300 3000 0 0 0 0
261	6598804 49302 115 115 0.1 300 3000 0 0 0 0
262	6648106 49302 115 115 0.1 300 3000 0 0 0 0
263	6697408 49302 115 115 0.1 300 3000 0 0 0 0
264	6746710 49302 115 115 0.1 300 3000 0 0 0 0
265	6796012 49302 115 115 0.1 300 3000 0 0 0 0
266	6845314 49302 115 115 0.1 300 3000 0 0 0 0
267	6894616 49302 115 115 0.1 300 3000 0 0 0 0
268	6943918 49302 115 115 0.1 300 3000 0 0 0 0
269	6993220 49302 115 115 0.1 300 3000 0 0 0 0
270	7042522 49302 115 115 0.1 300 3000 0 0 0 0
271	7091824 49302 115 115 0.1 300 3000 0 0 0 0
272	7141126 49302 115 115 0.1 300 3000 0 0 0 0
273	7190428 49302 115 115 0.1 300 3000 0 0 0 0
274	7239730 49302 115 115 0.1 300 3000 0 0 0 0
275	7289032 49302 115 115 0.1 300 3000 0 0 0 0
276	7338334 49302 115 115 0.1 300 3000 0 0 0 0
277	7387636 49302 115 115 0.1 300 3000 0 0 0 0
278	7436938 49302 115 115 0.1 300 3000 0 0 0 0
279	7486240 49302 115 115 0.1 300 3000 0 0 0 0
280	7535542 49302 115 115 0.1 300 3000 0 0 0 0
281	7584844 49302 115 115 0.1 300 3000 0 0 0 0
282	7634146 49302 115 115 0.1 300 3000 0 0 0 0
283	7683448 49302 115 115 0.1 300 3000 0 0 0 0
284	7732750 49302 115 115 0.1 300 3000 0 0 0 0
285	7782052 49302 115 115 0.1 300 3000 0 0 0 0
286	7831354 49302 115 115 0.1 300 3000 0 0 0 0
287	7880656 49302 115 115 0.1 300 3000 0 0 0 0
288	7929958 49302 115 115 0.1 300 3000 0 0 0 0
289	7979260 49302 115 115 0.1 300 3000 0 0 0 0
290	8028562 49302 115 115 0.1 300 3000 0 0 0 0
291	8077864 49302 115 115 0.1 300 3000 0 0 0 0
292	8127166 49302 115 115 0.1 300 3000 0 0 0 0
293	8176468 49302 115 115 0.1 300 3000 0 0 0 0
294	8225770 49302 115 115 0.1 300 3000 0 0 0 0
295	8275072 49302 115 115 0.1 300 3000 0 0 0 0
296	8324374 49302 115 115 0.1 300 3000 0 0 0 0
297	8373676 49302 115 115 0.1 300 3000 0 0 0 0
298	8422978 49302 115 115 0.1 300 3000 0 0 0 0
299	8472280 49302 115 115 0.1 300 3000 0 0 0 0
300	8521582 49302 115 115 0.1 300 3000 0 0 0 0
301	8570884 49302 115 115 0.1 300 3000 0 0 0 0
302	8620186 49302 115 115 0.1 300 3000 0 0 0 0
303	8669488 35175 115 115 0.1 215.9 2159 0 0 0 0
vector 304 SmartSubstationTopology.stationB_Camera3.app[0] throughput:vector ETV
attr recordingmode vector
attr source throughput(packetReceived)
attr title throughput
attr unit bps
vector 305 SmartSubstationTopology.stationB_Camera4.eth[0].queue outgoingDataRate:vector ETV
attr interpolationmode linear
attr recordingmode vector
attr source throughput(packetPulled)
attr title "outgoing datarate"
attr unit bps
vector 306 SmartSubstationTopology.stationB_Camera4.eth[0].queue incomingDataRate:vector ETV
attr interpolationmode linear
attr recordingmode vector
attr source throughput(packetPushStarted)
attr title "incoming datarate"
attr unit bps
vector 307 SmartSubstationTopology.stationB_Camera4.app[0] throughput:vector ETV
attr recordingmode vector
attr source throughput(packetReceived)
attr title throughput
attr unit bps
vector 308 SmartSubstationTopology.stationB_Camera5.eth[0].queue outgoingDataRate:vector ETV
attr interpolationmode linear
attr recordingmode vector
attr source throughput(packetPulled)
attr title "outgoing datarate"
attr unit bps
vector 309 SmartSubstationTopology.stationB_Camera5.eth[0].queue incomingDataRate:vector ETV
attr interpolationmode linear
attr recordingmode vector
attr source throughput(packetPushStarted)
attr title "incoming datarate"
attr unit bps
vector 310 SmartSubstationTopology.stationB_Camera5.app[0] throughput:vector ETV
attr recordingmode vector
attr source throughput(packetReceived)
attr title throughput
attr unit bps
vector 311 SmartSubstationTopology.stationB_Camera6.eth[0].queue outgoingDataRate:vector ETV
attr interpolationmode linear
attr recordingmode vector
attr source throughput(packetPulled)
attr title "outgoing datarate"
attr unit bps
vector 312 SmartSubstationTopology.stationB_Camera6.eth[0].queue incomingDataRate:vector ETV
attr interpolationmode linear
attr recordingmode vector
attr source throughput(packetPushStarted)
attr title "incoming datarate"
attr unit bps
vector 313 SmartSubstationTopology.stationB_Camera6.app[0] throughput:vector ETV
attr recordingmode vector
attr source throughput(packetReceived)
attr title throughput
attr unit bps
vector 314 SmartSubstationTopology.stationB_Camera7.eth[0].queue outgoingDataRate:vector ETV
attr interpolationmode linear
attr recordingmode vector
attr source throughput(packetPulled)
attr title "outgoing datarate"
attr unit bps
vector 315 SmartSubstationTopology.stationB_Camera7.eth[0].queue incomingDataRate:vector ETV
attr interpolationmode linear
attr recordingmode vector
attr source throughput(packetPushStarted)
attr title "incoming datarate"
attr unit bps
vector 316 SmartSubstationTopology.stationB_Camera7.app[0] throughput:vector ETV
attr recordingmode vector
attr source throughput(packetReceived)
attr title throughput
attr unit bps
vector 317 SmartSubstationTopology.stationB_Camera8.eth[0].queue outgoingDataRate:vector ETV
attr interpolationmode linear
attr recordingmode vector
attr source throughput(packetPulled)
attr title "outgoing datarate"
attr unit bps
vector 318 SmartSubstationTopology.stationB_Camera8.eth[0].queue incomingDataRate:vector ETV
attr interpolationmode linear
attr recordingmode vector
attr source throughput(packetPushStarted)
attr title "incoming datarate"
attr unit bps
vector 319 SmartSubstationTopology.stationB_Camera8.app[0] throughput:vector ETV
attr recordingmode vector
attr source throughput(packetReceived)
attr title throughput
attr unit bps
vector 320 SmartSubstationTopology.stationB_Camera9.eth[0].queue outgoingDataRate:vector ETV
attr interpolationmode linear
attr recordingmode vector
attr source throughput(packetPulled)
attr title "outgoing datarate"
attr unit bps
vector 321 SmartSubstationTopology.stationB_Camera9.eth[0].queue incomingDataRate:vector ETV
attr interpolationmode linear
attr recordingmode vector
attr source throughput(packetPushStarted)
attr title "incoming datarate"
attr unit bps
vector 322 SmartSubstationTopology.stationB_Camera9.app[0] throughput:vector ETV
attr recordingmode vector
attr source throughput(packetReceived)
attr title throughput
attr unit bps
vector 323 SmartSubstationTopology.stationB_Camera10.eth[0].queue outgoingDataRate:vector ETV
attr interpolationmode linear
attr recordingmode vector
attr source throughput(packetPulled)
attr title "outgoing datarate"
attr unit bps
vector 324 SmartSubstationTopology.stationB_Camera10.eth[0].queue incomingDataRate:vector ETV
attr interpolationmode linear
attr recordingmode vector
attr source throughput(packetPushStarted)
attr title "incoming datarate"
attr unit bps
vector 325 SmartSubstationTopology.stationB_Camera10.app[0] throughput:vector ETV
attr recordingmode vector
attr source throughput(packetReceived)
attr title throughput
attr unit bps
vector 326 SmartSubstationTopology.stationB_VoIP1.eth[0].queue outgoingDataRate:vector ETV
attr interpolationmode linear
attr recordingmode vector
attr source throughput(packetPulled)
attr title "outgoing datarate"
attr unit bps
vector 327 SmartSubstationTopology.stationB_VoIP1.eth[0].queue incomingDataRate:vector ETV
attr interpolationmode linear
attr recordingmode vector
attr source throughput(packetPushStarted)
attr title "incoming datarate"
attr unit bps
vector 328 SmartSubstationTopology.stationB_VoIP1.app[0] throughput:vector ETV
attr recordingmode vector
attr source throughput(packetReceived)
attr title throughput
attr unit bps
vector 329 SmartSubstationTopology.stationB_VoIP2.eth[0].queue outgoingDataRate:vector ETV
attr interpolationmode linear
attr recordingmode vector
attr source throughput(packetPulled)
attr title "outgoing datarate"
attr unit bps
vector 330 SmartSubstationTopology.stationB_VoIP2.eth[0].queue incomingDataRate:vector ETV
attr interpolationmode linear
attr recordingmode vector
attr source throughput(packetPushStarted)
attr title "incoming datarate"
attr unit bps
vector 331 SmartSubstationTopology.stationB_VoIP2.app[0] throughput:vector ETV
attr recordingmode vector
attr source throughput(packetReceived)
attr title throughput
attr unit bps
vector 332 SmartSubstationTopology.stationB_OMServer.eth[0].queue outgoingDataRate:vector ETV
attr interpolationmode linear
attr recordingmode vector
attr source throughput(packetPulled)
attr title "outgoing datarate"
attr unit bps
vector 333 SmartSubstationTopology.stationB_OMServer.eth[0].queue incomingDataRate:vector ETV
attr interpolationmode linear
attr recordingmode vector
attr source throughput(packetPushStarted)
attr title "incoming datarate"
attr unit bps
vector 334 SmartSubstationTopology.stationB_OMServer.app[0] throughput:vector ETV
attr recordingmode vector
attr source throughput(packetReceived)
attr title throughput
attr unit bps
vector 335 SmartSubstationTopology.borderGateway1.eth[0].queue outgoingDataRate:vector ETV
attr interpolationmode linear
attr recordingmode vector
attr source throughput(packetPulled)
attr title "outgoing datarate"
attr unit bps
vector 336 SmartSubstationTopology.borderGateway1.eth[0].queue incomingDataRate:vector ETV
attr interpolationmode linear
attr recordingmode vector
attr source throughput(packetPushStarted)
attr title "incoming datarate"
attr unit bps
vector 337 SmartSubstationTopology.borderGateway1.eth[1].queue outgoingDataRate:vector ETV
attr interpolationmode linear
attr recordingmode vector
attr source throughput(packetPulled)
attr title "outgoing datarate"
attr unit bps
vector 338 SmartSubstationTopology.borderGateway1.eth[1].queue incomingDataRate:vector ETV
attr interpolationmode linear
attr recordingmode vector
attr source throughput(packetPushStarted)
attr title "incoming datarate"
attr unit bps
vector 339 SmartSubstationTopology.borderGateway2.eth[0].queue outgoingDataRate:vector ETV
attr interpolationmode linear
attr recordingmode vector
attr source throughput(packetPulled)
attr title "outgoing datarate"
attr unit bps
vector 340 SmartSubstationTopology.borderGateway2.eth[0].queue incomingDataRate:vector ETV
attr interpolationmode linear
attr recordingmode vector
attr source throughput(packetPushStarted)
attr title "incoming datarate"
attr unit bps
vector 341 SmartSubstationTopology.borderGateway2.eth[1].queue outgoingDataRate:vector ETV
attr interpolationmode linear
attr recordingmode vector
attr source throughput(packetPulled)
attr title "outgoing datarate"
attr unit bps
vector 342 SmartSubstationTopology.borderGateway2.eth[1].queue incomingDataRate:vector ETV
attr interpolationmode linear
attr recordingmode vector
attr source throughput(packetPushStarted)
attr title "incoming datarate"
attr unit bps
vector 343 SmartSubstationTopology.otnDevice.eth[0].queue outgoingDataRate:vector ETV
attr interpolationmode linear
attr recordingmode vector
attr source throughput(packetPulled)
attr title "outgoing datarate"
attr unit bps
vector 344 SmartSubstationTopology.otnDevice.eth[0].queue incomingDataRate:vector ETV
attr interpolationmode linear
attr recordingmode vector
attr source throughput(packetPushStarted)
attr title "incoming datarate"
attr unit bps
vector 345 SmartSubstationTopology.otnDevice.eth[1].queue outgoingDataRate:vector ETV
attr interpolationmode linear
attr recordingmode vector
attr source throughput(packetPulled)
attr title "outgoing datarate"
attr unit bps
vector 346 SmartSubstationTopology.otnDevice.eth[1].queue incomingDataRate:vector ETV
attr interpolationmode linear
attr recordingmode vector
attr source throughput(packetPushStarted)
attr title "incoming datarate"
attr unit bps
303	8714334 14127 115 115 216 300 841 0 0 0 0
304	8728461 49302 115 115 0.1 300 3000 0 0 0 0
305	8777763 49302 115 115 0.1 300 3000 0 0 0 0
306	8827065 49302 115 115 0.1 300 3000 0 0 0 0
307	8876367 49302 115 115 0.1 300 3000 0 0 0 0
308	8925669 49302 115 115 0.1 300 3000 0 0 0 0
309	8974971 49302 115 115 0.1 300 3000 0 0 0 0
310	9024273 49302 115 115 0.1 300 3000 0 0 0 0
311	9073575 49302 115 115 0.1 300 3000 0 0 0 0
312	9122877 49302 115 115 0.1 300 3000 0 0 0 0
313	9172179 49302 115 115 0.1 300 3000 0 0 0 0
314	9221481 49302 115 115 0.1 300 3000 0 0 0 0
315	9270783 49302 115 115 0.1 300 3000 0 0 0 0
316	9320085 49302 115 115 0.1 300 3000 0 0 0 0
317	9369387 49302 115 115 0.1 300 3000 0 0 0 0
318	9418689 49302 115 115 0.1 300 3000 0 0 0 0
319	9467991 49302 115 115 0.1 300 3000 0 0 0 0
320	9517293 49302 115 115 0.1 300 3000 0 0 0 0
321	9566595 49302 115 115 0.1 300 3000 0 0 0 0
322	9615897 49302 115 115 0.1 300 3000 0 0 0 0
323	9665199 49302 115 115 0.1 300 3000 0 0 0 0
324	9714501 49302 115 115 0.1 300 3000 0 0 0 0
325	9763803 49302 115 115 0.1 300 3000 0 0 0 0
326	9813105 49302 115 115 0.1 300 3000 0 0 0 0
327	9862407 49302 115 115 0.1 300 3000 0 0 0 0
328	9911709 49302 115 115 0.1 300 3000 0 0 0 0
329	9961011 49302 115 115 0.1 300 3000 0 0 0 0
330	10010313 49302 115 115 0.1 300 3000 0 0 0 0
331	10059615 49302 115 115 0.1 300 3000 0 0 0 0
332	10108917 49302 115 115 0.1 300 3000 0 0 0 0
333	10158219 49302 115 115 0.1 300 3000 0 0 0 0
334	10207521 49302 115 115 0.1 300 3000 0 0 0 0
335	10256823 49302 115 115 0.1 300 3000 0 0 0 0
336	10306125 49302 115 115 0.1 300 3000 0 0 0 0
337	10355427 49302 115 115 0.1 300 3000 0 0 0 0
338	10404729 49302 115 115 0.1 300 3000 0 0 0 0
339	10454031 49302 115 115 0.1 300 3000 0 0 0 0
340	10503333 49302 115 115 0.1 300 3000 0 0 0 0
341	10552635 49302 115 115 0.1 300 3000 0 0 0 0
342	10601937 49302 115 115 0.1 300 3000 0 0 0 0
343	10651239 49302 115 115 0.1 300 3000 0 0 0 0
344	10700541 49302 115 115 0.1 300 3000 0 0 0 0
345	10749843 49302 115 115 0.1 300 3000 0 0 0 0
346	10799145 49302 115 115 0.1 300 3000 0 0 0 0

