version 3
run SimpleTest-0-20260123-17:17:57-24668
attr configname SimpleTest
attr datetime 20260123-17:17:57
attr datetimef 20260123-171757
attr experiment SimpleTest
attr inifile omnetpp.ini
attr iterationvars ""
attr iterationvarsd ""
attr iterationvarsf ""
attr measurement ""
attr network SmartSubstationTopology
attr processid 24668
attr repetition 0
attr replication #0
attr resultdir results
attr runnumber 0
attr seedset 0
config image-path ../inet4.5/images
config network SmartSubstationTopology
config sim-time-limit 300s
config *.configurator.typename IPv4NetworkConfigurator
config *.stationA_MU.numApps 1
config *.stationA_MU.app[0].typename UdpBasicApp
config *.stationA_MU.app[0].destAddress "\"10.0.0.2\""
config *.stationA_MU.app[0].destPort 1000
config *.stationA_MU.app[0].messageLength 100B
config *.stationA_MU.app[0].sendInterval 1s
config *.stationA_MU.app[0].startTime 0.5s
config *.stationA_Protection.numApps 1
config *.stationA_Protection.app[0].typename UdpSink
config *.stationA_Protection.app[0].localPort 1000
config *.stationA_MU.ipv4.address "\"10.0.0.1\""
config *.stationA_MU.ipv4.netmask "\"255.255.255.0\""
config *.stationA_Protection.ipv4.address "\"10.0.0.2\""
config *.stationA_Protection.ipv4.netmask "\"255.255.255.0\""
config *.configurator.typename ""
config network SmartSubstationTopology
config sim-time-limit 50s
config cmdenv-express-mode false
config record-eventlog true
config **.udp.verbose true
config **.ipv4.verbose true
config **.arp.verbose true
config *.configurator.typename IPv4NetworkConfigurator
config **.hasIpv4 true
config **.hasUdp true
config **.hasTcp false
config *.stationA_MU.numApps 1
config *.stationA_MU.app[0].typename UdpBasicApp
config *.stationA_MU.app[0].localPort 1000
config *.stationA_MU.app[0].destAddress "\"stationA_Protection\""
config *.stationA_MU.app[0].destPort 2000
config *.stationA_MU.app[0].messageLength 140B
config *.stationA_MU.app[0].sendInterval 250us
config *.stationA_MU.app[0].startTime 0.2s
config *.stationA_MU.app[0].packetName "\"SV_Packet\""
config *.stationA_MU.app[0].dscp 56
config *.stationA_MU.app[0].verbose true
config *.stationA_Protection.numApps 3
config *.stationA_Protection.app[0].typename UdpSink
config *.stationA_Protection.app[0].localPort 2000
config *.stationA_Protection.app[0].verbose true
config *.stationA_Protection.app[1].typename UdpBasicApp
config *.stationA_Protection.app[1].localPort 2001
config *.stationA_Protection.app[1].destAddress "\"stationA_IT\""
config *.stationA_Protection.app[1].destPort 3000
config *.stationA_Protection.app[1].messageLength 120B
config *.stationA_Protection.app[1].sendInterval exponential(2s)
config *.stationA_Protection.app[1].startTime 0.8s
config *.stationA_Protection.app[1].packetName "\"GOOSE_Packet\""
config *.stationA_Protection.app[1].dscp 48
config *.stationA_Protection.app[1].verbose true
config *.stationA_IT.numApps 1
config *.stationA_IT.app[0].typename UdpSink
config *.stationA_IT.app[0].localPort 3000
config *.stationA_IT.app[0].verbose true
config *.stationA_Protection.app[2].typename UdpBasicApp
config *.stationA_Protection.app[2].localPort 2002
config *.stationA_Protection.app[2].destAddress "\"stationB_Protection\""
config *.stationA_Protection.app[2].destPort 4000
config *.stationA_Protection.app[2].messageLength 100B
config *.stationA_Protection.app[2].sendInterval 1.5s
config *.stationA_Protection.app[2].startTime 1.2s
config *.stationA_Protection.app[2].packetName "\"CrossStation_Packet\""
config *.stationA_Protection.app[2].verbose true
config *.stationB_Protection.numApps 1
config *.stationB_Protection.app[0].typename UdpSink
config *.stationB_Protection.app[0].localPort 4000
config *.stationB_Protection.app[0].verbose true
config *.stationA_BusProtection.numApps 1
config *.stationA_BusProtection.app[0].typename UdpSink
config *.stationA_BusProtection.app[0].localPort 5000
config *.stationA_BusProtection.app[0].verbose true
config *.stationA_BusProtection_MU1.numApps 1
config *.stationA_BusProtection_MU1.app[0].typename UdpBasicApp
config *.stationA_BusProtection_MU1.app[0].localPort 5101
config *.stationA_BusProtection_MU1.app[0].destAddress "\"stationA_BusProtection\""
config *.stationA_BusProtection_MU1.app[0].destPort 5000
config *.stationA_BusProtection_MU1.app[0].messageLength 140B
config *.stationA_BusProtection_MU1.app[0].sendInterval 250us
config *.stationA_BusProtection_MU1.app[0].startTime 0.3s
config *.stationA_BusProtection_MU1.app[0].packetName "\"Bus_SV_1\""
config *.stationA_BusProtection_MU1.app[0].dscp 56
config *.stationA_BusProtection_MU1.app[0].verbose true
config *.stationA_BusProtection_MU2.numApps 1
config *.stationA_BusProtection_MU2.app[0].typename UdpBasicApp
config *.stationA_BusProtection_MU2.app[0].localPort 5102
config *.stationA_BusProtection_MU2.app[0].destAddress "\"stationA_BusProtection\""
config *.stationA_BusProtection_MU2.app[0].destPort 5000
config *.stationA_BusProtection_MU2.app[0].messageLength 140B
config *.stationA_BusProtection_MU2.app[0].sendInterval 250us
config *.stationA_BusProtection_MU2.app[0].startTime 0.4s
config *.stationA_BusProtection_MU2.app[0].packetName "\"Bus_SV_2\""
config *.stationA_BusProtection_MU2.app[0].dscp 56
config *.stationA_BusProtection_MU2.app[0].verbose true
config *.stationA_BusProtection_MU3.numApps 1
config *.stationA_BusProtection_MU3.app[0].typename UdpBasicApp
config *.stationA_BusProtection_MU3.app[0].localPort 5103
config *.stationA_BusProtection_MU3.app[0].destAddress "\"stationA_BusProtection\""
config *.stationA_BusProtection_MU3.app[0].destPort 5000
config *.stationA_BusProtection_MU3.app[0].messageLength 140B
config *.stationA_BusProtection_MU3.app[0].sendInterval 250us
config *.stationA_BusProtection_MU3.app[0].startTime 0.5s
config *.stationA_BusProtection_MU3.app[0].packetName "\"Bus_SV_3\""
config *.stationA_BusProtection_MU3.app[0].dscp 56
config *.stationA_BusProtection_MU3.app[0].verbose true
config *.stationB_BusProtection.numApps 1
config *.stationB_BusProtection.app[0].typename UdpSink
config *.stationB_BusProtection.app[0].localPort 5000
config *.stationB_BusProtection.app[0].verbose true
config *.stationB_BusProtection_MU1.numApps 1
config *.stationB_BusProtection_MU1.app[0].typename UdpBasicApp
config *.stationB_BusProtection_MU1.app[0].localPort 5101
config *.stationB_BusProtection_MU1.app[0].destAddress "\"stationB_BusProtection\""
config *.stationB_BusProtection_MU1.app[0].destPort 5000
config *.stationB_BusProtection_MU1.app[0].messageLength 140B
config *.stationB_BusProtection_MU1.app[0].sendInterval 250us
config *.stationB_BusProtection_MU1.app[0].startTime 0.3s
config *.stationB_BusProtection_MU1.app[0].packetName "\"Bus_SV_1\""
config *.stationB_BusProtection_MU1.app[0].dscp 56
config *.stationB_BusProtection_MU1.app[0].verbose true
config *.stationB_BusProtection_MU2.numApps 1
config *.stationB_BusProtection_MU2.app[0].typename UdpBasicApp
config *.stationB_BusProtection_MU2.app[0].localPort 5102
config *.stationB_BusProtection_MU2.app[0].destAddress "\"stationB_BusProtection\""
config *.stationB_BusProtection_MU2.app[0].destPort 5000
config *.stationB_BusProtection_MU2.app[0].messageLength 140B
config *.stationB_BusProtection_MU2.app[0].sendInterval 250us
config *.stationB_BusProtection_MU2.app[0].startTime 0.4s
config *.stationB_BusProtection_MU2.app[0].packetName "\"Bus_SV_2\""
config *.stationB_BusProtection_MU2.app[0].dscp 56
config *.stationB_BusProtection_MU2.app[0].verbose true
config *.stationB_BusProtection_MU3.numApps 1
config *.stationB_BusProtection_MU3.app[0].typename UdpBasicApp
config *.stationB_BusProtection_MU3.app[0].localPort 5103
config *.stationB_BusProtection_MU3.app[0].destAddress "\"stationB_BusProtection\""
config *.stationB_BusProtection_MU3.app[0].destPort 5000
config *.stationB_BusProtection_MU3.app[0].messageLength 140B
config *.stationB_BusProtection_MU3.app[0].sendInterval 250us
config *.stationB_BusProtection_MU3.app[0].startTime 0.5s
config *.stationB_BusProtection_MU3.app[0].packetName "\"Bus_SV_3\""
config *.stationB_BusProtection_MU3.app[0].dscp 56
config *.stationB_BusProtection_MU3.app[0].verbose true
config *.stationA_Camera*.numApps 1
config *.stationA_Camera*.app[0].typename UdpBasicApp
config *.stationA_Camera*.app[0].destAddress "\"stationA_OMServer\""
config *.stationA_Camera*.app[0].destPort 6000
config *.stationA_Camera*.app[0].messageLength 10MB
config *.stationA_Camera*.app[0].sendInterval 33.33ms
config *.stationA_Camera*.app[0].startTime "uniform(0.5s, 1s)"
config *.stationA_Camera*.app[0].packetName "\"Video_Stream\""
config *.stationA_Camera*.app[0].dscp 0
config *.stationA_Camera*.app[0].verbose true
config *.stationB_Camera*.numApps 1
config *.stationB_Camera*.app[0].typename UdpBasicApp
config *.stationB_Camera*.app[0].destAddress "\"stationB_OMServer\""
config *.stationB_Camera*.app[0].destPort 6000
config *.stationB_Camera*.app[0].messageLength 10MB
config *.stationB_Camera*.app[0].sendInterval 33.33ms
config *.stationB_Camera*.app[0].startTime "uniform(0.5s, 1s)"
config *.stationB_Camera*.app[0].packetName "\"Video_Stream\""
config *.stationB_Camera*.app[0].dscp 0
config *.stationB_Camera*.app[0].verbose true
config *.stationA_OMServer.numApps 1
config *.stationA_OMServer.app[0].typename UdpSink
config *.stationA_OMServer.app[0].localPort 6000
config *.stationA_OMServer.app[0].verbose true
config *.stationB_OMServer.numApps 1
config *.stationB_OMServer.app[0].typename UdpSink
config *.stationB_OMServer.app[0].localPort 6000
config *.stationB_OMServer.app[0].verbose true
config *.stationA_VoIP1.numApps 1
config *.stationA_VoIP1.app[0].typename UdpBasicApp
config *.stationA_VoIP1.app[0].localPort 7001
config *.stationA_VoIP1.app[0].destAddress "\"stationB_VoIP1\""
config *.stationA_VoIP1.app[0].destPort 8001
config *.stationA_VoIP1.app[0].messageLength 200B
config *.stationA_VoIP1.app[0].sendInterval 20ms
config *.stationA_VoIP1.app[0].startTime 0.6s
config *.stationA_VoIP1.app[0].packetName "\"VoIP_Stream\""
config *.stationA_VoIP1.app[0].dscp 40
config *.stationA_VoIP1.app[0].verbose true
config *.stationA_VoIP2.numApps 1
config *.stationA_VoIP2.app[0].typename UdpBasicApp
config *.stationA_VoIP2.app[0].localPort 7002
config *.stationA_VoIP2.app[0].destAddress "\"stationB_VoIP2\""
config *.stationA_VoIP2.app[0].destPort 8002
config *.stationA_VoIP2.app[0].messageLength 200B
config *.stationA_VoIP2.app[0].sendInterval 20ms
config *.stationA_VoIP2.app[0].startTime 0.7s
config *.stationA_VoIP2.app[0].packetName "\"VoIP_Stream\""
config *.stationA_VoIP2.app[0].dscp 40
config *.stationA_VoIP2.app[0].verbose true
config *.stationB_VoIP1.numApps 1
config *.stationB_VoIP1.app[0].typename UdpSink
config *.stationB_VoIP1.app[0].localPort 8001
config *.stationB_VoIP1.app[0].verbose true
config *.stationB_VoIP2.numApps 1
config *.stationB_VoIP2.app[0].typename UdpSink
config *.stationB_VoIP2.app[0].localPort 8002
config *.stationB_VoIP2.app[0].verbose true
config *.stationB_VoIP1.numApps 2
config *.stationB_VoIP1.app[1].typename UdpBasicApp
config *.stationB_VoIP1.app[1].localPort 8003
config *.stationB_VoIP1.app[1].destAddress "\"stationA_VoIP1\""
config *.stationB_VoIP1.app[1].destPort 7003
config *.stationB_VoIP1.app[1].messageLength 200B
config *.stationB_VoIP1.app[1].sendInterval 20ms
config *.stationB_VoIP1.app[1].startTime 0.8s
config *.stationB_VoIP1.app[1].packetName "\"VoIP_Stream_Reply\""
config *.stationB_VoIP1.app[1].dscp 40
config *.stationB_VoIP1.app[1].verbose true
config *.stationB_VoIP2.numApps 2
config *.stationB_VoIP2.app[1].typename UdpBasicApp
config *.stationB_VoIP2.app[1].localPort 8004
config *.stationB_VoIP2.app[1].destAddress "\"stationA_VoIP2\""
config *.stationB_VoIP2.app[1].destPort 7004
config *.stationB_VoIP2.app[1].messageLength 200B
config *.stationB_VoIP2.app[1].sendInterval 20ms
config *.stationB_VoIP2.app[1].startTime 0.9s
config *.stationB_VoIP2.app[1].packetName "\"VoIP_Stream_Reply\""
config *.stationB_VoIP2.app[1].dscp 40
config *.stationB_VoIP2.app[1].verbose true
config *.stationA_VoIP1.numApps 2
config *.stationA_VoIP1.app[1].typename UdpSink
config *.stationA_VoIP1.app[1].localPort 7003
config *.stationA_VoIP1.app[1].verbose true
config *.stationA_VoIP2.numApps 2
config *.stationA_VoIP2.app[1].typename UdpSink
config *.stationA_VoIP2.app[1].localPort 7004
config *.stationA_VoIP2.app[1].verbose true
config *.stationA_OMServer.numApps 2
config *.stationA_OMServer.app[1].typename UdpBasicApp
config *.stationA_OMServer.app[1].localPort 9001
config *.stationA_OMServer.app[1].destAddress "\"stationB_OMServer\""
config *.stationA_OMServer.app[1].destPort 9002
config *.stationA_OMServer.app[1].messageLength "normal(1500B, 500B)"
config *.stationA_OMServer.app[1].sendInterval exponential(0.1s)
config *.stationA_OMServer.app[1].startTime 1s
config *.stationA_OMServer.app[1].packetName "\"OM_Data_Burst\""
config *.stationA_OMServer.app[1].dscp 0
config *.stationA_OMServer.app[1].verbose true
config *.stationB_OMServer.numApps 2
config *.stationB_OMServer.app[1].typename UdpSink
config *.stationB_OMServer.app[1].localPort 9002
config *.stationB_OMServer.app[1].verbose true
config *.stationB_OMServer.numApps 3
config *.stationB_OMServer.app[2].typename UdpBasicApp
config *.stationB_OMServer.app[2].localPort 9003
config *.stationB_OMServer.app[2].destAddress "\"stationA_OMServer\""
config *.stationB_OMServer.app[2].destPort 9004
config *.stationB_OMServer.app[2].messageLength "normal(1500B, 500B)"
config *.stationB_OMServer.app[2].sendInterval exponential(0.1s)
config *.stationB_OMServer.app[2].startTime 1.2s
config *.stationB_OMServer.app[2].packetName "\"OM_Data_Burst_Reply\""
config *.stationB_OMServer.app[2].dscp 0
config *.stationB_OMServer.app[2].verbose true
config *.stationA_OMServer.numApps 3
config *.stationA_OMServer.app[2].typename UdpSink
config *.stationA_OMServer.app[2].localPort 9004
config *.stationA_OMServer.app[2].verbose true
config **.app[*].source.packetSentSignal true
config **.app[*].sink.packetReceivedSignal true
config **.app[*].sink.endToEndDelayStatistic.record true
config **.app[*].sink.delayHistogram.record true
config **.app[*].sink.numReceivedStatistic.record true
config **.app[*].sink.throughputStatistic.record true
config **.app[*].sink.jitterStatistic.record true
config **.app[*].sink.jitterHistogram.record true
config *.stationA_VoIP*.app[*].sink.delayThreshold 150ms
config *.stationA_VoIP*.app[*].sink.jitterThreshold 30ms
config *.stationB_VoIP*.app[*].sink.delayThreshold 150ms
config *.stationB_VoIP*.app[*].sink.jitterThreshold 30ms
config *.stationA_MU.app[0].sink.delayThreshold 30ms
config *.stationA_MU.app[0].sink.jitterThreshold 250us
config *.stationA_BusProtection_MU*.app[*].sink.delayThreshold 30ms
config *.stationA_BusProtection_MU*.app[*].sink.jitterThreshold 250us
config *.stationA_*.displayString "\"i=abstract/pc\""
config *.stationB_*.displayString "\"i=abstract/pc\""
config *.borderGateway*.displayString "\"i=misc/router\""
config *.otnDevice.displayString "\"i=misc/router_vs\""
config *.stationA_MU.displayString "\"i=block/switch,green\""
config *.stationA_Protection.displayString "\"i=block/computer,red\""
config *.stationA_IT.displayString "\"i=block/plug,blue\""
config *.stationB_Protection.displayString "\"i=block/computer,red\""
config *.stationA_BusProtection.displayString "\"i=block/computer,orange\""
config *.stationB_BusProtection.displayString "\"i=block/computer,orange\""
config *.stationA_BusProtection_MU*.displayString "\"i=block/switch,yellow\""
config *.stationB_BusProtection_MU*.displayString "\"i=block/switch,yellow\""
config *.stationA_Camera*.displayString "\"i=device/camera,gray\""
config *.stationB_Camera*.displayString "\"i=device/camera,gray\""
config *.stationA_VoIP*.displayString "\"i=device/iphone,gray\""
config *.stationB_VoIP*.displayString "\"i=device/iphone,gray\""
config *.stationA_OMServer.displayString "\"i=block/server,gray\""
config *.stationB_OMServer.displayString "\"i=block/server,gray\""
config **.channel.displayString "\"ls=black,1\""

par SmartSubstationTopology.stationA_MU.ethg$o[0].channel typename "\"SmartSubstationTopology.HighPriorityChannel\""
par SmartSubstationTopology.stationA_MU.ethg$o[0].channel disabled false
attr mutable ""
par SmartSubstationTopology.stationA_MU.ethg$o[0].channel delay 5e-05s
attr mutable ""
attr unit s
par SmartSubstationTopology.stationA_MU.ethg$o[0].channel datarate 1e+09bps
attr mutable ""
attr unit bps
par SmartSubstationTopology.stationA_MU.ethg$o[0].channel ber 0
attr mutable ""
par SmartSubstationTopology.stationA_MU.ethg$o[0].channel per 0
attr mutable ""
par SmartSubstationTopology.stationA_TSN.ethg$o[0].channel typename "\"SmartSubstationTopology.HighPriorityChannel\""
par SmartSubstationTopology.stationA_TSN.ethg$o[0].channel disabled false
attr mutable ""
par SmartSubstationTopology.stationA_TSN.ethg$o[0].channel delay 5e-05s
attr mutable ""
attr unit s
par SmartSubstationTopology.stationA_TSN.ethg$o[0].channel datarate 1e+09bps
attr mutable ""
attr unit bps
par SmartSubstationTopology.stationA_TSN.ethg$o[0].channel ber 0
attr mutable ""
par SmartSubstationTopology.stationA_TSN.ethg$o[0].channel per 0
attr mutable ""
par SmartSubstationTopology.stationA_Protection.ethg$o[0].channel typename "\"SmartSubstationTopology.HighPriorityChannel\""
par SmartSubstationTopology.stationA_Protection.ethg$o[0].channel disabled false
attr mutable ""
par SmartSubstationTopology.stationA_Protection.ethg$o[0].channel delay 5e-05s
attr mutable ""
attr unit s
par SmartSubstationTopology.stationA_Protection.ethg$o[0].channel datarate 1e+09bps
attr mutable ""
attr unit bps
par SmartSubstationTopology.stationA_Protection.ethg$o[0].channel ber 0
attr mutable ""
par SmartSubstationTopology.stationA_Protection.ethg$o[0].channel per 0
attr mutable ""
par SmartSubstationTopology.stationA_TSN.ethg$o[1].channel typename "\"SmartSubstationTopology.HighPriorityChannel\""
par SmartSubstationTopology.stationA_TSN.ethg$o[1].channel disabled false
attr mutable ""
par SmartSubstationTopology.stationA_TSN.ethg$o[1].channel delay 5e-05s
attr mutable ""
attr unit s
par SmartSubstationTopology.stationA_TSN.ethg$o[1].channel datarate 1e+09bps
attr mutable ""
attr unit bps
par SmartSubstationTopology.stationA_TSN.ethg$o[1].channel ber 0
attr mutable ""
par SmartSubstationTopology.stationA_TSN.ethg$o[1].channel per 0
attr mutable ""
par SmartSubstationTopology.stationA_IT.ethg$o[0].channel typename "\"SmartSubstationTopology.HighPriorityChannel\""
par SmartSubstationTopology.stationA_IT.ethg$o[0].channel disabled false
attr mutable ""
par SmartSubstationTopology.stationA_IT.ethg$o[0].channel delay 5e-05s
attr mutable ""
attr unit s
par SmartSubstationTopology.stationA_IT.ethg$o[0].channel datarate 1e+09bps
attr mutable ""
attr unit bps
par SmartSubstationTopology.stationA_IT.ethg$o[0].channel ber 0
attr mutable ""
par SmartSubstationTopology.stationA_IT.ethg$o[0].channel per 0
attr mutable ""
par SmartSubstationTopology.stationA_TSN.ethg$o[2].channel typename "\"SmartSubstationTopology.HighPriorityChannel\""
par SmartSubstationTopology.stationA_TSN.ethg$o[2].channel disabled false
attr mutable ""
par SmartSubstationTopology.stationA_TSN.ethg$o[2].channel delay 5e-05s
attr mutable ""
attr unit s
par SmartSubstationTopology.stationA_TSN.ethg$o[2].channel datarate 1e+09bps
attr mutable ""
attr unit bps
par SmartSubstationTopology.stationA_TSN.ethg$o[2].channel ber 0
attr mutable ""
par SmartSubstationTopology.stationA_TSN.ethg$o[2].channel per 0
attr mutable ""
par SmartSubstationTopology.stationA_BusProtection_MU1.ethg$o[0].channel typename "\"SmartSubstationTopology.EthChannel\""
par SmartSubstationTopology.stationA_BusProtection_MU1.ethg$o[0].channel disabled false
attr mutable ""
par SmartSubstationTopology.stationA_BusProtection_MU1.ethg$o[0].channel delay 0.0001s
attr mutable ""
attr unit s
par SmartSubstationTopology.stationA_BusProtection_MU1.ethg$o[0].channel datarate 1e+09bps
attr mutable ""
attr unit bps
par SmartSubstationTopology.stationA_BusProtection_MU1.ethg$o[0].channel ber 0
attr mutable ""
par SmartSubstationTopology.stationA_BusProtection_MU1.ethg$o[0].channel per 0
attr mutable ""
par SmartSubstationTopology.stationA_TSN.ethg$o[3].channel typename "\"SmartSubstationTopology.EthChannel\""
par SmartSubstationTopology.stationA_TSN.ethg$o[3].channel disabled false
attr mutable ""
par SmartSubstationTopology.stationA_TSN.ethg$o[3].channel delay 0.0001s
attr mutable ""
attr unit s
par SmartSubstationTopology.stationA_TSN.ethg$o[3].channel datarate 1e+09bps
attr mutable ""
attr unit bps
par SmartSubstationTopology.stationA_TSN.ethg$o[3].channel ber 0
attr mutable ""
par SmartSubstationTopology.stationA_TSN.ethg$o[3].channel per 0
attr mutable ""
par SmartSubstationTopology.stationA_BusProtection_MU2.ethg$o[0].channel typename "\"SmartSubstationTopology.EthChannel\""
par SmartSubstationTopology.stationA_BusProtection_MU2.ethg$o[0].channel disabled false
attr mutable ""
par SmartSubstationTopology.stationA_BusProtection_MU2.ethg$o[0].channel delay 0.0001s
attr mutable ""
attr unit s
par SmartSubstationTopology.stationA_BusProtection_MU2.ethg$o[0].channel datarate 1e+09bps
attr mutable ""
attr unit bps
par SmartSubstationTopology.stationA_BusProtection_MU2.ethg$o[0].channel ber 0
attr mutable ""
par SmartSubstationTopology.stationA_BusProtection_MU2.ethg$o[0].channel per 0
attr mutable ""
par SmartSubstationTopology.stationA_TSN.ethg$o[4].channel typename "\"SmartSubstationTopology.EthChannel\""
par SmartSubstationTopology.stationA_TSN.ethg$o[4].channel disabled false
attr mutable ""
par SmartSubstationTopology.stationA_TSN.ethg$o[4].channel delay 0.0001s
attr mutable ""
attr unit s
par SmartSubstationTopology.stationA_TSN.ethg$o[4].channel datarate 1e+09bps
attr mutable ""
attr unit bps
par SmartSubstationTopology.stationA_TSN.ethg$o[4].channel ber 0
attr mutable ""
par SmartSubstationTopology.stationA_TSN.ethg$o[4].channel per 0
attr mutable ""
par SmartSubstationTopology.stationA_BusProtection_MU3.ethg$o[0].channel typename "\"SmartSubstationTopology.EthChannel\""
par SmartSubstationTopology.stationA_BusProtection_MU3.ethg$o[0].channel disabled false
attr mutable ""
par SmartSubstationTopology.stationA_BusProtection_MU3.ethg$o[0].channel delay 0.0001s
attr mutable ""
attr unit s
par SmartSubstationTopology.stationA_BusProtection_MU3.ethg$o[0].channel datarate 1e+09bps
attr mutable ""
attr unit bps
par SmartSubstationTopology.stationA_BusProtection_MU3.ethg$o[0].channel ber 0
attr mutable ""
par SmartSubstationTopology.stationA_BusProtection_MU3.ethg$o[0].channel per 0
attr mutable ""
par SmartSubstationTopology.stationA_TSN.ethg$o[5].channel typename "\"SmartSubstationTopology.EthChannel\""
par SmartSubstationTopology.stationA_TSN.ethg$o[5].channel disabled false
attr mutable ""
par SmartSubstationTopology.stationA_TSN.ethg$o[5].channel delay 0.0001s
attr mutable ""
attr unit s
par SmartSubstationTopology.stationA_TSN.ethg$o[5].channel datarate 1e+09bps
attr mutable ""
attr unit bps
par SmartSubstationTopology.stationA_TSN.ethg$o[5].channel ber 0
attr mutable ""
par SmartSubstationTopology.stationA_TSN.ethg$o[5].channel per 0
attr mutable ""
par SmartSubstationTopology.stationA_BusProtection.ethg$o[0].channel typename "\"SmartSubstationTopology.EthChannel\""
par SmartSubstationTopology.stationA_BusProtection.ethg$o[0].channel disabled false
attr mutable ""
par SmartSubstationTopology.stationA_BusProtection.ethg$o[0].channel delay 0.0001s
attr mutable ""
attr unit s
par SmartSubstationTopology.stationA_BusProtection.ethg$o[0].channel datarate 1e+09bps
attr mutable ""
attr unit bps
par SmartSubstationTopology.stationA_BusProtection.ethg$o[0].channel ber 0
attr mutable ""
par SmartSubstationTopology.stationA_BusProtection.ethg$o[0].channel per 0
attr mutable ""
par SmartSubstationTopology.stationA_TSN.ethg$o[6].channel typename "\"SmartSubstationTopology.EthChannel\""
par SmartSubstationTopology.stationA_TSN.ethg$o[6].channel disabled false
attr mutable ""
par SmartSubstationTopology.stationA_TSN.ethg$o[6].channel delay 0.0001s
attr mutable ""
attr unit s
par SmartSubstationTopology.stationA_TSN.ethg$o[6].channel datarate 1e+09bps
attr mutable ""
attr unit bps
par SmartSubstationTopology.stationA_TSN.ethg$o[6].channel ber 0
attr mutable ""
par SmartSubstationTopology.stationA_TSN.ethg$o[6].channel per 0
attr mutable ""
par SmartSubstationTopology.stationA_Camera1.ethg$o[0].channel typename "\"SmartSubstationTopology.EthChannel\""
par SmartSubstationTopology.stationA_Camera1.ethg$o[0].channel disabled false
attr mutable ""
par SmartSubstationTopology.stationA_Camera1.ethg$o[0].channel delay 0.0001s
attr mutable ""
attr unit s
par SmartSubstationTopology.stationA_Camera1.ethg$o[0].channel datarate 1e+09bps
attr mutable ""
attr unit bps
par SmartSubstationTopology.stationA_Camera1.ethg$o[0].channel ber 0
attr mutable ""
par SmartSubstationTopology.stationA_Camera1.ethg$o[0].channel per 0
attr mutable ""
par SmartSubstationTopology.stationA_TSN.ethg$o[7].channel typename "\"SmartSubstationTopology.EthChannel\""
par SmartSubstationTopology.stationA_TSN.ethg$o[7].channel disabled false
attr mutable ""
par SmartSubstationTopology.stationA_TSN.ethg$o[7].channel delay 0.0001s
attr mutable ""
attr unit s
par SmartSubstationTopology.stationA_TSN.ethg$o[7].channel datarate 1e+09bps
attr mutable ""
attr unit bps
par SmartSubstationTopology.stationA_TSN.ethg$o[7].channel ber 0
attr mutable ""
par SmartSubstationTopology.stationA_TSN.ethg$o[7].channel per 0
attr mutable ""
par SmartSubstationTopology.stationA_Camera2.ethg$o[0].channel typename "\"SmartSubstationTopology.EthChannel\""
par SmartSubstationTopology.stationA_Camera2.ethg$o[0].channel disabled false
attr mutable ""
par SmartSubstationTopology.stationA_Camera2.ethg$o[0].channel delay 0.0001s
attr mutable ""
attr unit s
par SmartSubstationTopology.stationA_Camera2.ethg$o[0].channel datarate 1e+09bps
attr mutable ""
attr unit bps
par SmartSubstationTopology.stationA_Camera2.ethg$o[0].channel ber 0
attr mutable ""
par SmartSubstationTopology.stationA_Camera2.ethg$o[0].channel per 0
attr mutable ""
par SmartSubstationTopology.stationA_TSN.ethg$o[8].channel typename "\"SmartSubstationTopology.EthChannel\""
par SmartSubstationTopology.stationA_TSN.ethg$o[8].channel disabled false
attr mutable ""
par SmartSubstationTopology.stationA_TSN.ethg$o[8].channel delay 0.0001s
attr mutable ""
attr unit s
par SmartSubstationTopology.stationA_TSN.ethg$o[8].channel datarate 1e+09bps
attr mutable ""
attr unit bps
par SmartSubstationTopology.stationA_TSN.ethg$o[8].channel ber 0
attr mutable ""
par SmartSubstationTopology.stationA_TSN.ethg$o[8].channel per 0
attr mutable ""
par SmartSubstationTopology.stationA_Camera3.ethg$o[0].channel typename "\"SmartSubstationTopology.EthChannel\""
par SmartSubstationTopology.stationA_Camera3.ethg$o[0].channel disabled false
attr mutable ""
par SmartSubstationTopology.stationA_Camera3.ethg$o[0].channel delay 0.0001s
attr mutable ""
attr unit s
par SmartSubstationTopology.stationA_Camera3.ethg$o[0].channel datarate 1e+09bps
attr mutable ""
attr unit bps
par SmartSubstationTopology.stationA_Camera3.ethg$o[0].channel ber 0
attr mutable ""
par SmartSubstationTopology.stationA_Camera3.ethg$o[0].channel per 0
attr mutable ""
par SmartSubstationTopology.stationA_TSN.ethg$o[9].channel typename "\"SmartSubstationTopology.EthChannel\""
par SmartSubstationTopology.stationA_TSN.ethg$o[9].channel disabled false
attr mutable ""
par SmartSubstationTopology.stationA_TSN.ethg$o[9].channel delay 0.0001s
attr mutable ""
attr unit s
par SmartSubstationTopology.stationA_TSN.ethg$o[9].channel datarate 1e+09bps
attr mutable ""
attr unit bps
par SmartSubstationTopology.stationA_TSN.ethg$o[9].channel ber 0
attr mutable ""
par SmartSubstationTopology.stationA_TSN.ethg$o[9].channel per 0
attr mutable ""
par SmartSubstationTopology.stationA_Camera4.ethg$o[0].channel typename "\"SmartSubstationTopology.EthChannel\""
par SmartSubstationTopology.stationA_Camera4.ethg$o[0].channel disabled false
attr mutable ""
par SmartSubstationTopology.stationA_Camera4.ethg$o[0].channel delay 0.0001s
attr mutable ""
attr unit s
par SmartSubstationTopology.stationA_Camera4.ethg$o[0].channel datarate 1e+09bps
attr mutable ""
attr unit bps
par SmartSubstationTopology.stationA_Camera4.ethg$o[0].channel ber 0
attr mutable ""
par SmartSubstationTopology.stationA_Camera4.ethg$o[0].channel per 0
attr mutable ""
par SmartSubstationTopology.stationA_TSN.ethg$o[10].channel typename "\"SmartSubstationTopology.EthChannel\""
par SmartSubstationTopology.stationA_TSN.ethg$o[10].channel disabled false
attr mutable ""
par SmartSubstationTopology.stationA_TSN.ethg$o[10].channel delay 0.0001s
attr mutable ""
attr unit s
par SmartSubstationTopology.stationA_TSN.ethg$o[10].channel datarate 1e+09bps
attr mutable ""
attr unit bps
par SmartSubstationTopology.stationA_TSN.ethg$o[10].channel ber 0
attr mutable ""
par SmartSubstationTopology.stationA_TSN.ethg$o[10].channel per 0
attr mutable ""
par SmartSubstationTopology.stationA_Camera5.ethg$o[0].channel typename "\"SmartSubstationTopology.EthChannel\""
par SmartSubstationTopology.stationA_Camera5.ethg$o[0].channel disabled false
attr mutable ""
par SmartSubstationTopology.stationA_Camera5.ethg$o[0].channel delay 0.0001s
attr mutable ""
attr unit s
par SmartSubstationTopology.stationA_Camera5.ethg$o[0].channel datarate 1e+09bps
attr mutable ""
attr unit bps
par SmartSubstationTopology.stationA_Camera5.ethg$o[0].channel ber 0
attr mutable ""
par SmartSubstationTopology.stationA_Camera5.ethg$o[0].channel per 0
attr mutable ""
par SmartSubstationTopology.stationA_TSN.ethg$o[11].channel typename "\"SmartSubstationTopology.EthChannel\""
par SmartSubstationTopology.stationA_TSN.ethg$o[11].channel disabled false
attr mutable ""
par SmartSubstationTopology.stationA_TSN.ethg$o[11].channel delay 0.0001s
attr mutable ""
attr unit s
par SmartSubstationTopology.stationA_TSN.ethg$o[11].channel datarate 1e+09bps
attr mutable ""
attr unit bps
par SmartSubstationTopology.stationA_TSN.ethg$o[11].channel ber 0
attr mutable ""
par SmartSubstationTopology.stationA_TSN.ethg$o[11].channel per 0
attr mutable ""
par SmartSubstationTopology.stationA_Camera6.ethg$o[0].channel typename "\"SmartSubstationTopology.EthChannel\""
par SmartSubstationTopology.stationA_Camera6.ethg$o[0].channel disabled false
attr mutable ""
par SmartSubstationTopology.stationA_Camera6.ethg$o[0].channel delay 0.0001s
attr mutable ""
attr unit s
par SmartSubstationTopology.stationA_Camera6.ethg$o[0].channel datarate 1e+09bps
attr mutable ""
attr unit bps
par SmartSubstationTopology.stationA_Camera6.ethg$o[0].channel ber 0
attr mutable ""
par SmartSubstationTopology.stationA_Camera6.ethg$o[0].channel per 0
attr mutable ""
par SmartSubstationTopology.stationA_TSN.ethg$o[12].channel typename "\"SmartSubstationTopology.EthChannel\""
par SmartSubstationTopology.stationA_TSN.ethg$o[12].channel disabled false
attr mutable ""
par SmartSubstationTopology.stationA_TSN.ethg$o[12].channel delay 0.0001s
attr mutable ""
attr unit s
par SmartSubstationTopology.stationA_TSN.ethg$o[12].channel datarate 1e+09bps
attr mutable ""
attr unit bps
par SmartSubstationTopology.stationA_TSN.ethg$o[12].channel ber 0
attr mutable ""
par SmartSubstationTopology.stationA_TSN.ethg$o[12].channel per 0
attr mutable ""
par SmartSubstationTopology.stationA_Camera7.ethg$o[0].channel typename "\"SmartSubstationTopology.EthChannel\""
par SmartSubstationTopology.stationA_Camera7.ethg$o[0].channel disabled false
attr mutable ""
par SmartSubstationTopology.stationA_Camera7.ethg$o[0].channel delay 0.0001s
attr mutable ""
attr unit s
par SmartSubstationTopology.stationA_Camera7.ethg$o[0].channel datarate 1e+09bps
attr mutable ""
attr unit bps
par SmartSubstationTopology.stationA_Camera7.ethg$o[0].channel ber 0
attr mutable ""
par SmartSubstationTopology.stationA_Camera7.ethg$o[0].channel per 0
attr mutable ""
par SmartSubstationTopology.stationA_TSN.ethg$o[13].channel typename "\"SmartSubstationTopology.EthChannel\""
par SmartSubstationTopology.stationA_TSN.ethg$o[13].channel disabled false
attr mutable ""
par SmartSubstationTopology.stationA_TSN.ethg$o[13].channel delay 0.0001s
attr mutable ""
attr unit s
par SmartSubstationTopology.stationA_TSN.ethg$o[13].channel datarate 1e+09bps
attr mutable ""
attr unit bps
par SmartSubstationTopology.stationA_TSN.ethg$o[13].channel ber 0
attr mutable ""
par SmartSubstationTopology.stationA_TSN.ethg$o[13].channel per 0
attr mutable ""
par SmartSubstationTopology.stationA_Camera8.ethg$o[0].channel typename "\"SmartSubstationTopology.EthChannel\""
par SmartSubstationTopology.stationA_Camera8.ethg$o[0].channel disabled false
attr mutable ""
par SmartSubstationTopology.stationA_Camera8.ethg$o[0].channel delay 0.0001s
attr mutable ""
attr unit s
par SmartSubstationTopology.stationA_Camera8.ethg$o[0].channel datarate 1e+09bps
attr mutable ""
attr unit bps
par SmartSubstationTopology.stationA_Camera8.ethg$o[0].channel ber 0
attr mutable ""
par SmartSubstationTopology.stationA_Camera8.ethg$o[0].channel per 0
attr mutable ""
par SmartSubstationTopology.stationA_TSN.ethg$o[14].channel typename "\"SmartSubstationTopology.EthChannel\""
par SmartSubstationTopology.stationA_TSN.ethg$o[14].channel disabled false
attr mutable ""
par SmartSubstationTopology.stationA_TSN.ethg$o[14].channel delay 0.0001s
attr mutable ""
attr unit s
par SmartSubstationTopology.stationA_TSN.ethg$o[14].channel datarate 1e+09bps
attr mutable ""
attr unit bps
par SmartSubstationTopology.stationA_TSN.ethg$o[14].channel ber 0
attr mutable ""
par SmartSubstationTopology.stationA_TSN.ethg$o[14].channel per 0
attr mutable ""
par SmartSubstationTopology.stationA_Camera9.ethg$o[0].channel typename "\"SmartSubstationTopology.EthChannel\""
par SmartSubstationTopology.stationA_Camera9.ethg$o[0].channel disabled false
attr mutable ""
par SmartSubstationTopology.stationA_Camera9.ethg$o[0].channel delay 0.0001s
attr mutable ""
attr unit s
par SmartSubstationTopology.stationA_Camera9.ethg$o[0].channel datarate 1e+09bps
attr mutable ""
attr unit bps
par SmartSubstationTopology.stationA_Camera9.ethg$o[0].channel ber 0
attr mutable ""
par SmartSubstationTopology.stationA_Camera9.ethg$o[0].channel per 0
attr mutable ""
par SmartSubstationTopology.stationA_TSN.ethg$o[15].channel typename "\"SmartSubstationTopology.EthChannel\""
par SmartSubstationTopology.stationA_TSN.ethg$o[15].channel disabled false
attr mutable ""
par SmartSubstationTopology.stationA_TSN.ethg$o[15].channel delay 0.0001s
attr mutable ""
attr unit s
par SmartSubstationTopology.stationA_TSN.ethg$o[15].channel datarate 1e+09bps
attr mutable ""
attr unit bps
par SmartSubstationTopology.stationA_TSN.ethg$o[15].channel ber 0
attr mutable ""
par SmartSubstationTopology.stationA_TSN.ethg$o[15].channel per 0
attr mutable ""
par SmartSubstationTopology.stationA_Camera10.ethg$o[0].channel typename "\"SmartSubstationTopology.EthChannel\""
par SmartSubstationTopology.stationA_Camera10.ethg$o[0].channel disabled false
attr mutable ""
par SmartSubstationTopology.stationA_Camera10.ethg$o[0].channel delay 0.0001s
attr mutable ""
attr unit s
par SmartSubstationTopology.stationA_Camera10.ethg$o[0].channel datarate 1e+09bps
attr mutable ""
attr unit bps
par SmartSubstationTopology.stationA_Camera10.ethg$o[0].channel ber 0
attr mutable ""
par SmartSubstationTopology.stationA_Camera10.ethg$o[0].channel per 0
attr mutable ""
par SmartSubstationTopology.stationA_TSN.ethg$o[16].channel typename "\"SmartSubstationTopology.EthChannel\""
par SmartSubstationTopology.stationA_TSN.ethg$o[16].channel disabled false
attr mutable ""
par SmartSubstationTopology.stationA_TSN.ethg$o[16].channel delay 0.0001s
attr mutable ""
attr unit s
par SmartSubstationTopology.stationA_TSN.ethg$o[16].channel datarate 1e+09bps
attr mutable ""
attr unit bps
par SmartSubstationTopology.stationA_TSN.ethg$o[16].channel ber 0
attr mutable ""
par SmartSubstationTopology.stationA_TSN.ethg$o[16].channel per 0
attr mutable ""
par SmartSubstationTopology.stationA_VoIP1.ethg$o[0].channel typename "\"SmartSubstationTopology.EthChannel\""
par SmartSubstationTopology.stationA_VoIP1.ethg$o[0].channel disabled false
attr mutable ""
par SmartSubstationTopology.stationA_VoIP1.ethg$o[0].channel delay 0.0001s
attr mutable ""
attr unit s
par SmartSubstationTopology.stationA_VoIP1.ethg$o[0].channel datarate 1e+09bps
attr mutable ""
attr unit bps
par SmartSubstationTopology.stationA_VoIP1.ethg$o[0].channel ber 0
attr mutable ""
par SmartSubstationTopology.stationA_VoIP1.ethg$o[0].channel per 0
attr mutable ""
par SmartSubstationTopology.stationA_TSN.ethg$o[17].channel typename "\"SmartSubstationTopology.EthChannel\""
par SmartSubstationTopology.stationA_TSN.ethg$o[17].channel disabled false
attr mutable ""
par SmartSubstationTopology.stationA_TSN.ethg$o[17].channel delay 0.0001s
attr mutable ""
attr unit s
par SmartSubstationTopology.stationA_TSN.ethg$o[17].channel datarate 1e+09bps
attr mutable ""
attr unit bps
par SmartSubstationTopology.stationA_TSN.ethg$o[17].channel ber 0
attr mutable ""
par SmartSubstationTopology.stationA_TSN.ethg$o[17].channel per 0
attr mutable ""
par SmartSubstationTopology.stationA_VoIP2.ethg$o[0].channel typename "\"SmartSubstationTopology.EthChannel\""
par SmartSubstationTopology.stationA_VoIP2.ethg$o[0].channel disabled false
attr mutable ""
par SmartSubstationTopology.stationA_VoIP2.ethg$o[0].channel delay 0.0001s
attr mutable ""
attr unit s
par SmartSubstationTopology.stationA_VoIP2.ethg$o[0].channel datarate 1e+09bps
attr mutable ""
attr unit bps
par SmartSubstationTopology.stationA_VoIP2.ethg$o[0].channel ber 0
attr mutable ""
par SmartSubstationTopology.stationA_VoIP2.ethg$o[0].channel per 0
attr mutable ""
par SmartSubstationTopology.stationA_TSN.ethg$o[18].channel typename "\"SmartSubstationTopology.EthChannel\""
par SmartSubstationTopology.stationA_TSN.ethg$o[18].channel disabled false
attr mutable ""
par SmartSubstationTopology.stationA_TSN.ethg$o[18].channel delay 0.0001s
attr mutable ""
attr unit s
par SmartSubstationTopology.stationA_TSN.ethg$o[18].channel datarate 1e+09bps
attr mutable ""
attr unit bps
par SmartSubstationTopology.stationA_TSN.ethg$o[18].channel ber 0
attr mutable ""
par SmartSubstationTopology.stationA_TSN.ethg$o[18].channel per 0
attr mutable ""
par SmartSubstationTopology.stationA_OMServer.ethg$o[0].channel typename "\"SmartSubstationTopology.EthChannel\""
par SmartSubstationTopology.stationA_OMServer.ethg$o[0].channel disabled false
attr mutable ""
par SmartSubstationTopology.stationA_OMServer.ethg$o[0].channel delay 0.0001s
attr mutable ""
attr unit s
par SmartSubstationTopology.stationA_OMServer.ethg$o[0].channel datarate 1e+09bps
attr mutable ""
attr unit bps
par SmartSubstationTopology.stationA_OMServer.ethg$o[0].channel ber 0
attr mutable ""
par SmartSubstationTopology.stationA_OMServer.ethg$o[0].channel per 0
attr mutable ""
par SmartSubstationTopology.stationA_TSN.ethg$o[19].channel typename "\"SmartSubstationTopology.EthChannel\""
par SmartSubstationTopology.stationA_TSN.ethg$o[19].channel disabled false
attr mutable ""
par SmartSubstationTopology.stationA_TSN.ethg$o[19].channel delay 0.0001s
attr mutable ""
attr unit s
par SmartSubstationTopology.stationA_TSN.ethg$o[19].channel datarate 1e+09bps
attr mutable ""
attr unit bps
par SmartSubstationTopology.stationA_TSN.ethg$o[19].channel ber 0
attr mutable ""
par SmartSubstationTopology.stationA_TSN.ethg$o[19].channel per 0
attr mutable ""
par SmartSubstationTopology.stationB_MU.ethg$o[0].channel typename "\"SmartSubstationTopology.HighPriorityChannel\""
par SmartSubstationTopology.stationB_MU.ethg$o[0].channel disabled false
attr mutable ""
par SmartSubstationTopology.stationB_MU.ethg$o[0].channel delay 5e-05s
attr mutable ""
attr unit s
par SmartSubstationTopology.stationB_MU.ethg$o[0].channel datarate 1e+09bps
attr mutable ""
attr unit bps
par SmartSubstationTopology.stationB_MU.ethg$o[0].channel ber 0
attr mutable ""
par SmartSubstationTopology.stationB_MU.ethg$o[0].channel per 0
attr mutable ""
par SmartSubstationTopology.stationB_TSN.ethg$o[0].channel typename "\"SmartSubstationTopology.HighPriorityChannel\""
par SmartSubstationTopology.stationB_TSN.ethg$o[0].channel disabled false
attr mutable ""
par SmartSubstationTopology.stationB_TSN.ethg$o[0].channel delay 5e-05s
attr mutable ""
attr unit s
par SmartSubstationTopology.stationB_TSN.ethg$o[0].channel datarate 1e+09bps
attr mutable ""
attr unit bps
par SmartSubstationTopology.stationB_TSN.ethg$o[0].channel ber 0
attr mutable ""
par SmartSubstationTopology.stationB_TSN.ethg$o[0].channel per 0
attr mutable ""
par SmartSubstationTopology.stationB_Protection.ethg$o[0].channel typename "\"SmartSubstationTopology.HighPriorityChannel\""
par SmartSubstationTopology.stationB_Protection.ethg$o[0].channel disabled false
attr mutable ""
par SmartSubstationTopology.stationB_Protection.ethg$o[0].channel delay 5e-05s
attr mutable ""
attr unit s
par SmartSubstationTopology.stationB_Protection.ethg$o[0].channel datarate 1e+09bps
attr mutable ""
attr unit bps
par SmartSubstationTopology.stationB_Protection.ethg$o[0].channel ber 0
attr mutable ""
par SmartSubstationTopology.stationB_Protection.ethg$o[0].channel per 0
attr mutable ""
par SmartSubstationTopology.stationB_TSN.ethg$o[1].channel typename "\"SmartSubstationTopology.HighPriorityChannel\""
par SmartSubstationTopology.stationB_TSN.ethg$o[1].channel disabled false
attr mutable ""
par SmartSubstationTopology.stationB_TSN.ethg$o[1].channel delay 5e-05s
attr mutable ""
attr unit s
par SmartSubstationTopology.stationB_TSN.ethg$o[1].channel datarate 1e+09bps
attr mutable ""
attr unit bps
par SmartSubstationTopology.stationB_TSN.ethg$o[1].channel ber 0
attr mutable ""
par SmartSubstationTopology.stationB_TSN.ethg$o[1].channel per 0
attr mutable ""
par SmartSubstationTopology.stationB_IT.ethg$o[0].channel typename "\"SmartSubstationTopology.HighPriorityChannel\""
par SmartSubstationTopology.stationB_IT.ethg$o[0].channel disabled false
attr mutable ""
par SmartSubstationTopology.stationB_IT.ethg$o[0].channel delay 5e-05s
attr mutable ""
attr unit s
par SmartSubstationTopology.stationB_IT.ethg$o[0].channel datarate 1e+09bps
attr mutable ""
attr unit bps
par SmartSubstationTopology.stationB_IT.ethg$o[0].channel ber 0
attr mutable ""
par SmartSubstationTopology.stationB_IT.ethg$o[0].channel per 0
attr mutable ""
par SmartSubstationTopology.stationB_TSN.ethg$o[2].channel typename "\"SmartSubstationTopology.HighPriorityChannel\""
par SmartSubstationTopology.stationB_TSN.ethg$o[2].channel disabled false
attr mutable ""
par SmartSubstationTopology.stationB_TSN.ethg$o[2].channel delay 5e-05s
attr mutable ""
attr unit s
par SmartSubstationTopology.stationB_TSN.ethg$o[2].channel datarate 1e+09bps
attr mutable ""
attr unit bps
par SmartSubstationTopology.stationB_TSN.ethg$o[2].channel ber 0
attr mutable ""
par SmartSubstationTopology.stationB_TSN.ethg$o[2].channel per 0
attr mutable ""
par SmartSubstationTopology.stationB_BusProtection_MU1.ethg$o[0].channel typename "\"SmartSubstationTopology.EthChannel\""
par SmartSubstationTopology.stationB_BusProtection_MU1.ethg$o[0].channel disabled false
attr mutable ""
par SmartSubstationTopology.stationB_BusProtection_MU1.ethg$o[0].channel delay 0.0001s
attr mutable ""
attr unit s
par SmartSubstationTopology.stationB_BusProtection_MU1.ethg$o[0].channel datarate 1e+09bps
attr mutable ""
attr unit bps
par SmartSubstationTopology.stationB_BusProtection_MU1.ethg$o[0].channel ber 0
attr mutable ""
par SmartSubstationTopology.stationB_BusProtection_MU1.ethg$o[0].channel per 0
attr mutable ""
par SmartSubstationTopology.stationB_TSN.ethg$o[3].channel typename "\"SmartSubstationTopology.EthChannel\""
par SmartSubstationTopology.stationB_TSN.ethg$o[3].channel disabled false
attr mutable ""
par SmartSubstationTopology.stationB_TSN.ethg$o[3].channel delay 0.0001s
attr mutable ""
attr unit s
par SmartSubstationTopology.stationB_TSN.ethg$o[3].channel datarate 1e+09bps
attr mutable ""
attr unit bps
par SmartSubstationTopology.stationB_TSN.ethg$o[3].channel ber 0
attr mutable ""
par SmartSubstationTopology.stationB_TSN.ethg$o[3].channel per 0
attr mutable ""
par SmartSubstationTopology.stationB_BusProtection_MU2.ethg$o[0].channel typename "\"SmartSubstationTopology.EthChannel\""
par SmartSubstationTopology.stationB_BusProtection_MU2.ethg$o[0].channel disabled false
attr mutable ""
par SmartSubstationTopology.stationB_BusProtection_MU2.ethg$o[0].channel delay 0.0001s
attr mutable ""
attr unit s
par SmartSubstationTopology.stationB_BusProtection_MU2.ethg$o[0].channel datarate 1e+09bps
attr mutable ""
attr unit bps
par SmartSubstationTopology.stationB_BusProtection_MU2.ethg$o[0].channel ber 0
attr mutable ""
par SmartSubstationTopology.stationB_BusProtection_MU2.ethg$o[0].channel per 0
attr mutable ""
par SmartSubstationTopology.stationB_TSN.ethg$o[4].channel typename "\"SmartSubstationTopology.EthChannel\""
par SmartSubstationTopology.stationB_TSN.ethg$o[4].channel disabled false
attr mutable ""
par SmartSubstationTopology.stationB_TSN.ethg$o[4].channel delay 0.0001s
attr mutable ""
attr unit s
par SmartSubstationTopology.stationB_TSN.ethg$o[4].channel datarate 1e+09bps
attr mutable ""
attr unit bps
par SmartSubstationTopology.stationB_TSN.ethg$o[4].channel ber 0
attr mutable ""
par SmartSubstationTopology.stationB_TSN.ethg$o[4].channel per 0
attr mutable ""
par SmartSubstationTopology.stationB_BusProtection_MU3.ethg$o[0].channel typename "\"SmartSubstationTopology.EthChannel\""
par SmartSubstationTopology.stationB_BusProtection_MU3.ethg$o[0].channel disabled false
attr mutable ""
par SmartSubstationTopology.stationB_BusProtection_MU3.ethg$o[0].channel delay 0.0001s
attr mutable ""
attr unit s
par SmartSubstationTopology.stationB_BusProtection_MU3.ethg$o[0].channel datarate 1e+09bps
attr mutable ""
attr unit bps
par SmartSubstationTopology.stationB_BusProtection_MU3.ethg$o[0].channel ber 0
attr mutable ""
par SmartSubstationTopology.stationB_BusProtection_MU3.ethg$o[0].channel per 0
attr mutable ""
par SmartSubstationTopology.stationB_TSN.ethg$o[5].channel typename "\"SmartSubstationTopology.EthChannel\""
par SmartSubstationTopology.stationB_TSN.ethg$o[5].channel disabled false
attr mutable ""
par SmartSubstationTopology.stationB_TSN.ethg$o[5].channel delay 0.0001s
attr mutable ""
attr unit s
par SmartSubstationTopology.stationB_TSN.ethg$o[5].channel datarate 1e+09bps
attr mutable ""
attr unit bps
par SmartSubstationTopology.stationB_TSN.ethg$o[5].channel ber 0
attr mutable ""
par SmartSubstationTopology.stationB_TSN.ethg$o[5].channel per 0
attr mutable ""
par SmartSubstationTopology.stationB_BusProtection.ethg$o[0].channel typename "\"SmartSubstationTopology.EthChannel\""
par SmartSubstationTopology.stationB_BusProtection.ethg$o[0].channel disabled false
attr mutable ""
par SmartSubstationTopology.stationB_BusProtection.ethg$o[0].channel delay 0.0001s
attr mutable ""
attr unit s
par SmartSubstationTopology.stationB_BusProtection.ethg$o[0].channel datarate 1e+09bps
attr mutable ""
attr unit bps
par SmartSubstationTopology.stationB_BusProtection.ethg$o[0].channel ber 0
attr mutable ""
par SmartSubstationTopology.stationB_BusProtection.ethg$o[0].channel per 0
attr mutable ""
par SmartSubstationTopology.stationB_TSN.ethg$o[6].channel typename "\"SmartSubstationTopology.EthChannel\""
par SmartSubstationTopology.stationB_TSN.ethg$o[6].channel disabled false
attr mutable ""
par SmartSubstationTopology.stationB_TSN.ethg$o[6].channel delay 0.0001s
attr mutable ""
attr unit s
par SmartSubstationTopology.stationB_TSN.ethg$o[6].channel datarate 1e+09bps
attr mutable ""
attr unit bps
par SmartSubstationTopology.stationB_TSN.ethg$o[6].channel ber 0
attr mutable ""
par SmartSubstationTopology.stationB_TSN.ethg$o[6].channel per 0
attr mutable ""
par SmartSubstationTopology.stationB_Camera1.ethg$o[0].channel typename "\"SmartSubstationTopology.EthChannel\""
par SmartSubstationTopology.stationB_Camera1.ethg$o[0].channel disabled false
attr mutable ""
par SmartSubstationTopology.stationB_Camera1.ethg$o[0].channel delay 0.0001s
attr mutable ""
attr unit s
par SmartSubstationTopology.stationB_Camera1.ethg$o[0].channel datarate 1e+09bps
attr mutable ""
attr unit bps
par SmartSubstationTopology.stationB_Camera1.ethg$o[0].channel ber 0
attr mutable ""
par SmartSubstationTopology.stationB_Camera1.ethg$o[0].channel per 0
attr mutable ""
par SmartSubstationTopology.stationB_TSN.ethg$o[7].channel typename "\"SmartSubstationTopology.EthChannel\""
par SmartSubstationTopology.stationB_TSN.ethg$o[7].channel disabled false
attr mutable ""
par SmartSubstationTopology.stationB_TSN.ethg$o[7].channel delay 0.0001s
attr mutable ""
attr unit s
par SmartSubstationTopology.stationB_TSN.ethg$o[7].channel datarate 1e+09bps
attr mutable ""
attr unit bps
par SmartSubstationTopology.stationB_TSN.ethg$o[7].channel ber 0
attr mutable ""
par SmartSubstationTopology.stationB_TSN.ethg$o[7].channel per 0
attr mutable ""
par SmartSubstationTopology.stationB_Camera2.ethg$o[0].channel typename "\"SmartSubstationTopology.EthChannel\""
par SmartSubstationTopology.stationB_Camera2.ethg$o[0].channel disabled false
attr mutable ""
par SmartSubstationTopology.stationB_Camera2.ethg$o[0].channel delay 0.0001s
attr mutable ""
attr unit s
par SmartSubstationTopology.stationB_Camera2.ethg$o[0].channel datarate 1e+09bps
attr mutable ""
attr unit bps
par SmartSubstationTopology.stationB_Camera2.ethg$o[0].channel ber 0
attr mutable ""
par SmartSubstationTopology.stationB_Camera2.ethg$o[0].channel per 0
attr mutable ""
par SmartSubstationTopology.stationB_TSN.ethg$o[8].channel typename "\"SmartSubstationTopology.EthChannel\""
par SmartSubstationTopology.stationB_TSN.ethg$o[8].channel disabled false
attr mutable ""
par SmartSubstationTopology.stationB_TSN.ethg$o[8].channel delay 0.0001s
attr mutable ""
attr unit s
par SmartSubstationTopology.stationB_TSN.ethg$o[8].channel datarate 1e+09bps
attr mutable ""
attr unit bps
par SmartSubstationTopology.stationB_TSN.ethg$o[8].channel ber 0
attr mutable ""
par SmartSubstationTopology.stationB_TSN.ethg$o[8].channel per 0
attr mutable ""
par SmartSubstationTopology.stationB_Camera3.ethg$o[0].channel typename "\"SmartSubstationTopology.EthChannel\""
par SmartSubstationTopology.stationB_Camera3.ethg$o[0].channel disabled false
attr mutable ""
par SmartSubstationTopology.stationB_Camera3.ethg$o[0].channel delay 0.0001s
attr mutable ""
attr unit s
par SmartSubstationTopology.stationB_Camera3.ethg$o[0].channel datarate 1e+09bps
attr mutable ""
attr unit bps
par SmartSubstationTopology.stationB_Camera3.ethg$o[0].channel ber 0
attr mutable ""
par SmartSubstationTopology.stationB_Camera3.ethg$o[0].channel per 0
attr mutable ""
par SmartSubstationTopology.stationB_TSN.ethg$o[9].channel typename "\"SmartSubstationTopology.EthChannel\""
par SmartSubstationTopology.stationB_TSN.ethg$o[9].channel disabled false
attr mutable ""
par SmartSubstationTopology.stationB_TSN.ethg$o[9].channel delay 0.0001s
attr mutable ""
attr unit s
par SmartSubstationTopology.stationB_TSN.ethg$o[9].channel datarate 1e+09bps
attr mutable ""
attr unit bps
par SmartSubstationTopology.stationB_TSN.ethg$o[9].channel ber 0
attr mutable ""
par SmartSubstationTopology.stationB_TSN.ethg$o[9].channel per 0
attr mutable ""
par SmartSubstationTopology.stationB_Camera4.ethg$o[0].channel typename "\"SmartSubstationTopology.EthChannel\""
par SmartSubstationTopology.stationB_Camera4.ethg$o[0].channel disabled false
attr mutable ""
par SmartSubstationTopology.stationB_Camera4.ethg$o[0].channel delay 0.0001s
attr mutable ""
attr unit s
par SmartSubstationTopology.stationB_Camera4.ethg$o[0].channel datarate 1e+09bps
attr mutable ""
attr unit bps
par SmartSubstationTopology.stationB_Camera4.ethg$o[0].channel ber 0
attr mutable ""
par SmartSubstationTopology.stationB_Camera4.ethg$o[0].channel per 0
attr mutable ""
par SmartSubstationTopology.stationB_TSN.ethg$o[10].channel typename "\"SmartSubstationTopology.EthChannel\""
par SmartSubstationTopology.stationB_TSN.ethg$o[10].channel disabled false
attr mutable ""
par SmartSubstationTopology.stationB_TSN.ethg$o[10].channel delay 0.0001s
attr mutable ""
attr unit s
par SmartSubstationTopology.stationB_TSN.ethg$o[10].channel datarate 1e+09bps
attr mutable ""
attr unit bps
par SmartSubstationTopology.stationB_TSN.ethg$o[10].channel ber 0
attr mutable ""
par SmartSubstationTopology.stationB_TSN.ethg$o[10].channel per 0
attr mutable ""
par SmartSubstationTopology.stationB_Camera5.ethg$o[0].channel typename "\"SmartSubstationTopology.EthChannel\""
par SmartSubstationTopology.stationB_Camera5.ethg$o[0].channel disabled false
attr mutable ""
par SmartSubstationTopology.stationB_Camera5.ethg$o[0].channel delay 0.0001s
attr mutable ""
attr unit s
par SmartSubstationTopology.stationB_Camera5.ethg$o[0].channel datarate 1e+09bps
attr mutable ""
attr unit bps
par SmartSubstationTopology.stationB_Camera5.ethg$o[0].channel ber 0
attr mutable ""
par SmartSubstationTopology.stationB_Camera5.ethg$o[0].channel per 0
attr mutable ""
par SmartSubstationTopology.stationB_TSN.ethg$o[11].channel typename "\"SmartSubstationTopology.EthChannel\""
par SmartSubstationTopology.stationB_TSN.ethg$o[11].channel disabled false
attr mutable ""
par SmartSubstationTopology.stationB_TSN.ethg$o[11].channel delay 0.0001s
attr mutable ""
attr unit s
par SmartSubstationTopology.stationB_TSN.ethg$o[11].channel datarate 1e+09bps
attr mutable ""
attr unit bps
par SmartSubstationTopology.stationB_TSN.ethg$o[11].channel ber 0
attr mutable ""
par SmartSubstationTopology.stationB_TSN.ethg$o[11].channel per 0
attr mutable ""
par SmartSubstationTopology.stationB_Camera6.ethg$o[0].channel typename "\"SmartSubstationTopology.EthChannel\""
par SmartSubstationTopology.stationB_Camera6.ethg$o[0].channel disabled false
attr mutable ""
par SmartSubstationTopology.stationB_Camera6.ethg$o[0].channel delay 0.0001s
attr mutable ""
attr unit s
par SmartSubstationTopology.stationB_Camera6.ethg$o[0].channel datarate 1e+09bps
attr mutable ""
attr unit bps
par SmartSubstationTopology.stationB_Camera6.ethg$o[0].channel ber 0
attr mutable ""
par SmartSubstationTopology.stationB_Camera6.ethg$o[0].channel per 0
attr mutable ""
par SmartSubstationTopology.stationB_TSN.ethg$o[12].channel typename "\"SmartSubstationTopology.EthChannel\""
par SmartSubstationTopology.stationB_TSN.ethg$o[12].channel disabled false
attr mutable ""
par SmartSubstationTopology.stationB_TSN.ethg$o[12].channel delay 0.0001s
attr mutable ""
attr unit s
par SmartSubstationTopology.stationB_TSN.ethg$o[12].channel datarate 1e+09bps
attr mutable ""
attr unit bps
par SmartSubstationTopology.stationB_TSN.ethg$o[12].channel ber 0
attr mutable ""
par SmartSubstationTopology.stationB_TSN.ethg$o[12].channel per 0
attr mutable ""
par SmartSubstationTopology.stationB_Camera7.ethg$o[0].channel typename "\"SmartSubstationTopology.EthChannel\""
par SmartSubstationTopology.stationB_Camera7.ethg$o[0].channel disabled false
attr mutable ""
par SmartSubstationTopology.stationB_Camera7.ethg$o[0].channel delay 0.0001s
attr mutable ""
attr unit s
par SmartSubstationTopology.stationB_Camera7.ethg$o[0].channel datarate 1e+09bps
attr mutable ""
attr unit bps
par SmartSubstationTopology.stationB_Camera7.ethg$o[0].channel ber 0
attr mutable ""
par SmartSubstationTopology.stationB_Camera7.ethg$o[0].channel per 0
attr mutable ""
par SmartSubstationTopology.stationB_TSN.ethg$o[13].channel typename "\"SmartSubstationTopology.EthChannel\""
par SmartSubstationTopology.stationB_TSN.ethg$o[13].channel disabled false
attr mutable ""
par SmartSubstationTopology.stationB_TSN.ethg$o[13].channel delay 0.0001s
attr mutable ""
attr unit s
par SmartSubstationTopology.stationB_TSN.ethg$o[13].channel datarate 1e+09bps
attr mutable ""
attr unit bps
par SmartSubstationTopology.stationB_TSN.ethg$o[13].channel ber 0
attr mutable ""
par SmartSubstationTopology.stationB_TSN.ethg$o[13].channel per 0
attr mutable ""
par SmartSubstationTopology.stationB_Camera8.ethg$o[0].channel typename "\"SmartSubstationTopology.EthChannel\""
par SmartSubstationTopology.stationB_Camera8.ethg$o[0].channel disabled false
attr mutable ""
par SmartSubstationTopology.stationB_Camera8.ethg$o[0].channel delay 0.0001s
attr mutable ""
attr unit s
par SmartSubstationTopology.stationB_Camera8.ethg$o[0].channel datarate 1e+09bps
attr mutable ""
attr unit bps
par SmartSubstationTopology.stationB_Camera8.ethg$o[0].channel ber 0
attr mutable ""
par SmartSubstationTopology.stationB_Camera8.ethg$o[0].channel per 0
attr mutable ""
par SmartSubstationTopology.stationB_TSN.ethg$o[14].channel typename "\"SmartSubstationTopology.EthChannel\""
par SmartSubstationTopology.stationB_TSN.ethg$o[14].channel disabled false
attr mutable ""
par SmartSubstationTopology.stationB_TSN.ethg$o[14].channel delay 0.0001s
attr mutable ""
attr unit s
par SmartSubstationTopology.stationB_TSN.ethg$o[14].channel datarate 1e+09bps
attr mutable ""
attr unit bps
par SmartSubstationTopology.stationB_TSN.ethg$o[14].channel ber 0
attr mutable ""
par SmartSubstationTopology.stationB_TSN.ethg$o[14].channel per 0
attr mutable ""
par SmartSubstationTopology.stationB_Camera9.ethg$o[0].channel typename "\"SmartSubstationTopology.EthChannel\""
par SmartSubstationTopology.stationB_Camera9.ethg$o[0].channel disabled false
attr mutable ""
par SmartSubstationTopology.stationB_Camera9.ethg$o[0].channel delay 0.0001s
attr mutable ""
attr unit s
par SmartSubstationTopology.stationB_Camera9.ethg$o[0].channel datarate 1e+09bps
attr mutable ""
attr unit bps
par SmartSubstationTopology.stationB_Camera9.ethg$o[0].channel ber 0
attr mutable ""
par SmartSubstationTopology.stationB_Camera9.ethg$o[0].channel per 0
attr mutable ""
par SmartSubstationTopology.stationB_TSN.ethg$o[15].channel typename "\"SmartSubstationTopology.EthChannel\""
par SmartSubstationTopology.stationB_TSN.ethg$o[15].channel disabled false
attr mutable ""
par SmartSubstationTopology.stationB_TSN.ethg$o[15].channel delay 0.0001s
attr mutable ""
attr unit s
par SmartSubstationTopology.stationB_TSN.ethg$o[15].channel datarate 1e+09bps
attr mutable ""
attr unit bps
par SmartSubstationTopology.stationB_TSN.ethg$o[15].channel ber 0
attr mutable ""
par SmartSubstationTopology.stationB_TSN.ethg$o[15].channel per 0
attr mutable ""
par SmartSubstationTopology.stationB_Camera10.ethg$o[0].channel typename "\"SmartSubstationTopology.EthChannel\""
par SmartSubstationTopology.stationB_Camera10.ethg$o[0].channel disabled false
attr mutable ""
par SmartSubstationTopology.stationB_Camera10.ethg$o[0].channel delay 0.0001s
attr mutable ""
attr unit s
par SmartSubstationTopology.stationB_Camera10.ethg$o[0].channel datarate 1e+09bps
attr mutable ""
attr unit bps
par SmartSubstationTopology.stationB_Camera10.ethg$o[0].channel ber 0
attr mutable ""
par SmartSubstationTopology.stationB_Camera10.ethg$o[0].channel per 0
attr mutable ""
par SmartSubstationTopology.stationB_TSN.ethg$o[16].channel typename "\"SmartSubstationTopology.EthChannel\""
par SmartSubstationTopology.stationB_TSN.ethg$o[16].channel disabled false
attr mutable ""
par SmartSubstationTopology.stationB_TSN.ethg$o[16].channel delay 0.0001s
attr mutable ""
attr unit s
par SmartSubstationTopology.stationB_TSN.ethg$o[16].channel datarate 1e+09bps
attr mutable ""
attr unit bps
par SmartSubstationTopology.stationB_TSN.ethg$o[16].channel ber 0
attr mutable ""
par SmartSubstationTopology.stationB_TSN.ethg$o[16].channel per 0
attr mutable ""
par SmartSubstationTopology.stationB_VoIP1.ethg$o[0].channel typename "\"SmartSubstationTopology.EthChannel\""
par SmartSubstationTopology.stationB_VoIP1.ethg$o[0].channel disabled false
attr mutable ""
par SmartSubstationTopology.stationB_VoIP1.ethg$o[0].channel delay 0.0001s
attr mutable ""
attr unit s
par SmartSubstationTopology.stationB_VoIP1.ethg$o[0].channel datarate 1e+09bps
attr mutable ""
attr unit bps
par SmartSubstationTopology.stationB_VoIP1.ethg$o[0].channel ber 0
attr mutable ""
par SmartSubstationTopology.stationB_VoIP1.ethg$o[0].channel per 0
attr mutable ""
par SmartSubstationTopology.stationB_TSN.ethg$o[17].channel typename "\"SmartSubstationTopology.EthChannel\""
par SmartSubstationTopology.stationB_TSN.ethg$o[17].channel disabled false
attr mutable ""
par SmartSubstationTopology.stationB_TSN.ethg$o[17].channel delay 0.0001s
attr mutable ""
attr unit s
par SmartSubstationTopology.stationB_TSN.ethg$o[17].channel datarate 1e+09bps
attr mutable ""
attr unit bps
par SmartSubstationTopology.stationB_TSN.ethg$o[17].channel ber 0
attr mutable ""
par SmartSubstationTopology.stationB_TSN.ethg$o[17].channel per 0
attr mutable ""
par SmartSubstationTopology.stationB_VoIP2.ethg$o[0].channel typename "\"SmartSubstationTopology.EthChannel\""
par SmartSubstationTopology.stationB_VoIP2.ethg$o[0].channel disabled false
attr mutable ""
par SmartSubstationTopology.stationB_VoIP2.ethg$o[0].channel delay 0.0001s
attr mutable ""
attr unit s
par SmartSubstationTopology.stationB_VoIP2.ethg$o[0].channel datarate 1e+09bps
attr mutable ""
attr unit bps
par SmartSubstationTopology.stationB_VoIP2.ethg$o[0].channel ber 0
attr mutable ""
par SmartSubstationTopology.stationB_VoIP2.ethg$o[0].channel per 0
attr mutable ""
par SmartSubstationTopology.stationB_TSN.ethg$o[18].channel typename "\"SmartSubstationTopology.EthChannel\""
par SmartSubstationTopology.stationB_TSN.ethg$o[18].channel disabled false
attr mutable ""
par SmartSubstationTopology.stationB_TSN.ethg$o[18].channel delay 0.0001s
attr mutable ""
attr unit s
par SmartSubstationTopology.stationB_TSN.ethg$o[18].channel datarate 1e+09bps
attr mutable ""
attr unit bps
par SmartSubstationTopology.stationB_TSN.ethg$o[18].channel ber 0
attr mutable ""
par SmartSubstationTopology.stationB_TSN.ethg$o[18].channel per 0
attr mutable ""
par SmartSubstationTopology.stationB_OMServer.ethg$o[0].channel typename "\"SmartSubstationTopology.EthChannel\""
par SmartSubstationTopology.stationB_OMServer.ethg$o[0].channel disabled false
attr mutable ""
par SmartSubstationTopology.stationB_OMServer.ethg$o[0].channel delay 0.0001s
attr mutable ""
attr unit s
par SmartSubstationTopology.stationB_OMServer.ethg$o[0].channel datarate 1e+09bps
attr mutable ""
attr unit bps
par SmartSubstationTopology.stationB_OMServer.ethg$o[0].channel ber 0
attr mutable ""
par SmartSubstationTopology.stationB_OMServer.ethg$o[0].channel per 0
attr mutable ""
par SmartSubstationTopology.stationB_TSN.ethg$o[19].channel typename "\"SmartSubstationTopology.EthChannel\""
par SmartSubstationTopology.stationB_TSN.ethg$o[19].channel disabled false
attr mutable ""
par SmartSubstationTopology.stationB_TSN.ethg$o[19].channel delay 0.0001s
attr mutable ""
attr unit s
par SmartSubstationTopology.stationB_TSN.ethg$o[19].channel datarate 1e+09bps
attr mutable ""
attr unit bps
par SmartSubstationTopology.stationB_TSN.ethg$o[19].channel ber 0
attr mutable ""
par SmartSubstationTopology.stationB_TSN.ethg$o[19].channel per 0
attr mutable ""
par SmartSubstationTopology.stationA_TSN.ethg$o[20].channel typename "\"SmartSubstationTopology.WanChannel\""
par SmartSubstationTopology.stationA_TSN.ethg$o[20].channel disabled false
attr mutable ""
par SmartSubstationTopology.stationA_TSN.ethg$o[20].channel delay 0.002s
attr mutable ""
attr unit s
par SmartSubstationTopology.stationA_TSN.ethg$o[20].channel datarate 1e+08bps
attr mutable ""
attr unit bps
par SmartSubstationTopology.stationA_TSN.ethg$o[20].channel ber 0
attr mutable ""
par SmartSubstationTopology.stationA_TSN.ethg$o[20].channel per 0
attr mutable ""
par SmartSubstationTopology.borderGateway1.ethg$o[0].channel typename "\"SmartSubstationTopology.WanChannel\""
par SmartSubstationTopology.borderGateway1.ethg$o[0].channel disabled false
attr mutable ""
par SmartSubstationTopology.borderGateway1.ethg$o[0].channel delay 0.002s
attr mutable ""
attr unit s
par SmartSubstationTopology.borderGateway1.ethg$o[0].channel datarate 1e+08bps
attr mutable ""
attr unit bps
par SmartSubstationTopology.borderGateway1.ethg$o[0].channel ber 0
attr mutable ""
par SmartSubstationTopology.borderGateway1.ethg$o[0].channel per 0
attr mutable ""
par SmartSubstationTopology.borderGateway1.ethg$o[1].channel typename "\"SmartSubstationTopology.WanChannel\""
par SmartSubstationTopology.borderGateway1.ethg$o[1].channel disabled false
attr mutable ""
par SmartSubstationTopology.borderGateway1.ethg$o[1].channel delay 0.002s
attr mutable ""
attr unit s
par SmartSubstationTopology.borderGateway1.ethg$o[1].channel datarate 1e+08bps
attr mutable ""
attr unit bps
par SmartSubstationTopology.borderGateway1.ethg$o[1].channel ber 0
attr mutable ""
par SmartSubstationTopology.borderGateway1.ethg$o[1].channel per 0
attr mutable ""
par SmartSubstationTopology.otnDevice.ethg$o[0].channel typename "\"SmartSubstationTopology.WanChannel\""
par SmartSubstationTopology.otnDevice.ethg$o[0].channel disabled false
attr mutable ""
par SmartSubstationTopology.otnDevice.ethg$o[0].channel delay 0.002s
attr mutable ""
attr unit s
par SmartSubstationTopology.otnDevice.ethg$o[0].channel datarate 1e+08bps
attr mutable ""
attr unit bps
par SmartSubstationTopology.otnDevice.ethg$o[0].channel ber 0
attr mutable ""
par SmartSubstationTopology.otnDevice.ethg$o[0].channel per 0
attr mutable ""
par SmartSubstationTopology.otnDevice.ethg$o[1].channel typename "\"SmartSubstationTopology.WanChannel\""
par SmartSubstationTopology.otnDevice.ethg$o[1].channel disabled false
attr mutable ""
par SmartSubstationTopology.otnDevice.ethg$o[1].channel delay 0.002s
attr mutable ""
attr unit s
par SmartSubstationTopology.otnDevice.ethg$o[1].channel datarate 1e+08bps
attr mutable ""
attr unit bps
par SmartSubstationTopology.otnDevice.ethg$o[1].channel ber 0
attr mutable ""
par SmartSubstationTopology.otnDevice.ethg$o[1].channel per 0
attr mutable ""
par SmartSubstationTopology.borderGateway2.ethg$o[0].channel typename "\"SmartSubstationTopology.WanChannel\""
par SmartSubstationTopology.borderGateway2.ethg$o[0].channel disabled false
attr mutable ""
par SmartSubstationTopology.borderGateway2.ethg$o[0].channel delay 0.002s
attr mutable ""
attr unit s
par SmartSubstationTopology.borderGateway2.ethg$o[0].channel datarate 1e+08bps
attr mutable ""
attr unit bps
par SmartSubstationTopology.borderGateway2.ethg$o[0].channel ber 0
attr mutable ""
par SmartSubstationTopology.borderGateway2.ethg$o[0].channel per 0
attr mutable ""
par SmartSubstationTopology.borderGateway2.ethg$o[1].channel typename "\"SmartSubstationTopology.WanChannel\""
par SmartSubstationTopology.borderGateway2.ethg$o[1].channel disabled false
attr mutable ""
par SmartSubstationTopology.borderGateway2.ethg$o[1].channel delay 0.002s
attr mutable ""
attr unit s
par SmartSubstationTopology.borderGateway2.ethg$o[1].channel datarate 1e+08bps
attr mutable ""
attr unit bps
par SmartSubstationTopology.borderGateway2.ethg$o[1].channel ber 0
attr mutable ""
par SmartSubstationTopology.borderGateway2.ethg$o[1].channel per 0
attr mutable ""
par SmartSubstationTopology.stationB_TSN.ethg$o[20].channel typename "\"SmartSubstationTopology.WanChannel\""
par SmartSubstationTopology.stationB_TSN.ethg$o[20].channel disabled false
attr mutable ""
par SmartSubstationTopology.stationB_TSN.ethg$o[20].channel delay 0.002s
attr mutable ""
attr unit s
par SmartSubstationTopology.stationB_TSN.ethg$o[20].channel datarate 1e+08bps
attr mutable ""
attr unit bps
par SmartSubstationTopology.stationB_TSN.ethg$o[20].channel ber 0
attr mutable ""
par SmartSubstationTopology.stationB_TSN.ethg$o[20].channel per 0
attr mutable ""
par SmartSubstationTopology.configurator typename "\"inet.networklayer.configurator.ipv4.Ipv4NetworkConfigurator\""
par SmartSubstationTopology.configurator minLinkWeight 0.001
par SmartSubstationTopology.configurator configureIsolatedNetworksSeparatly false
par SmartSubstationTopology.configurator config "<config>...</config> at content:1"
par SmartSubstationTopology.configurator assignAddresses true
par SmartSubstationTopology.configurator assignUniqueAddresses true
par SmartSubstationTopology.configurator assignDisjunctSubnetAddresses true
par SmartSubstationTopology.configurator addStaticRoutes true
par SmartSubstationTopology.configurator addDefaultRoutes true
par SmartSubstationTopology.configurator addSubnetRoutes true
par SmartSubstationTopology.configurator addDirectRoutes true
par SmartSubstationTopology.configurator optimizeRoutes true
par SmartSubstationTopology.configurator dumpTopology false
par SmartSubstationTopology.configurator dumpLinks false
par SmartSubstationTopology.configurator dumpAddresses false
par SmartSubstationTopology.configurator dumpRoutes false
par SmartSubstationTopology.configurator dumpConfig "\"\""
par SmartSubstationTopology.stationA_TSN.eth[0].phys$o.channel typename "\"ned.IdealChannel\""
par SmartSubstationTopology.stationA_TSN.ethg$i[0].channel typename "\"ned.IdealChannel\""
par SmartSubstationTopology.stationA_TSN.eth[1].phys$o.channel typename "\"ned.IdealChannel\""
par SmartSubstationTopology.stationA_TSN.ethg$i[1].channel typename "\"ned.IdealChannel\""
par SmartSubstationTopology.stationA_TSN.eth[2].phys$o.channel typename "\"ned.IdealChannel\""
par SmartSubstationTopology.stationA_TSN.ethg$i[2].channel typename "\"ned.IdealChannel\""
par SmartSubstationTopology.stationA_TSN.eth[3].phys$o.channel typename "\"ned.IdealChannel\""
par SmartSubstationTopology.stationA_TSN.ethg$i[3].channel typename "\"ned.IdealChannel\""
par SmartSubstationTopology.stationA_TSN.eth[4].phys$o.channel typename "\"ned.IdealChannel\""
par SmartSubstationTopology.stationA_TSN.ethg$i[4].channel typename "\"ned.IdealChannel\""
par SmartSubstationTopology.stationA_TSN.eth[5].phys$o.channel typename "\"ned.IdealChannel\""
par SmartSubstationTopology.stationA_TSN.ethg$i[5].channel typename "\"ned.IdealChannel\""
par SmartSubstationTopology.stationA_TSN.eth[6].phys$o.channel typename "\"ned.IdealChannel\""
par SmartSubstationTopology.stationA_TSN.ethg$i[6].channel typename "\"ned.IdealChannel\""
par SmartSubstationTopology.stationA_TSN.eth[7].phys$o.channel typename "\"ned.IdealChannel\""
par SmartSubstationTopology.stationA_TSN.ethg$i[7].channel typename "\"ned.IdealChannel\""
par SmartSubstationTopology.stationA_TSN.eth[8].phys$o.channel typename "\"ned.IdealChannel\""
par SmartSubstationTopology.stationA_TSN.ethg$i[8].channel typename "\"ned.IdealChannel\""
par SmartSubstationTopology.stationA_TSN.eth[9].phys$o.channel typename "\"ned.IdealChannel\""
par SmartSubstationTopology.stationA_TSN.ethg$i[9].channel typename "\"ned.IdealChannel\""
par SmartSubstationTopology.stationA_TSN.eth[10].phys$o.channel typename "\"ned.IdealChannel\""
par SmartSubstationTopology.stationA_TSN.ethg$i[10].channel typename "\"ned.IdealChannel\""
par SmartSubstationTopology.stationA_TSN.eth[11].phys$o.channel typename "\"ned.IdealChannel\""
par SmartSubstationTopology.stationA_TSN.ethg$i[11].channel typename "\"ned.IdealChannel\""
par SmartSubstationTopology.stationA_TSN.eth[12].phys$o.channel typename "\"ned.IdealChannel\""
par SmartSubstationTopology.stationA_TSN.ethg$i[12].channel typename "\"ned.IdealChannel\""
par SmartSubstationTopology.stationA_TSN.eth[13].phys$o.channel typename "\"ned.IdealChannel\""
par SmartSubstationTopology.stationA_TSN.ethg$i[13].channel typename "\"ned.IdealChannel\""
par SmartSubstationTopology.stationA_TSN.eth[14].phys$o.channel typename "\"ned.IdealChannel\""
par SmartSubstationTopology.stationA_TSN.ethg$i[14].channel typename "\"ned.IdealChannel\""
par SmartSubstationTopology.stationA_TSN.eth[15].phys$o.channel typename "\"ned.IdealChannel\""
par SmartSubstationTopology.stationA_TSN.ethg$i[15].channel typename "\"ned.IdealChannel\""
par SmartSubstationTopology.stationA_TSN.eth[16].phys$o.channel typename "\"ned.IdealChannel\""
par SmartSubstationTopology.stationA_TSN.ethg$i[16].channel typename "\"ned.IdealChannel\""
par SmartSubstationTopology.stationA_TSN.eth[17].phys$o.channel typename "\"ned.IdealChannel\""
par SmartSubstationTopology.stationA_TSN.ethg$i[17].channel typename "\"ned.IdealChannel\""
par SmartSubstationTopology.stationA_TSN.eth[18].phys$o.channel typename "\"ned.IdealChannel\""
par SmartSubstationTopology.stationA_TSN.ethg$i[18].channel typename "\"ned.IdealChannel\""
par SmartSubstationTopology.stationA_TSN.eth[19].phys$o.channel typename "\"ned.IdealChannel\""
par SmartSubstationTopology.stationA_TSN.ethg$i[19].channel typename "\"ned.IdealChannel\""
par SmartSubstationTopology.stationA_TSN.eth[20].phys$o.channel typename "\"ned.IdealChannel\""
par SmartSubstationTopology.stationA_TSN.ethg$i[20].channel typename "\"ned.IdealChannel\""
par SmartSubstationTopology.stationA_TSN.macTable typename "\"inet.linklayer.ethernet.common.MacForwardingTable\""
par SmartSubstationTopology.stationA_TSN.macTable agingTime 120s
attr unit s
par SmartSubstationTopology.stationA_TSN.macTable forwardingTable []
attr mutable ""
par SmartSubstationTopology.stationA_TSN.macTable forwardingTableFile "\"\""
par SmartSubstationTopology.stationA_TSN.macTable interfaceTableModule "\"SmartSubstationTopology.stationA_TSN.interfaceTable\""
par SmartSubstationTopology.stationA_TSN.macTable displayStringTextFormat "\"addr: %a\\nvlan: %v\""
par SmartSubstationTopology.stationA_TSN.interfaceTable typename "\"inet.networklayer.common.InterfaceTable\""
par SmartSubstationTopology.stationA_TSN.interfaceTable displayAddresses false
par SmartSubstationTopology.stationA_TSN.sc typename "\"inet.common.MessageDispatcher\""
par SmartSubstationTopology.stationA_TSN.sc displayStringTextFormat "\"processed %p pk (%l)\""
par SmartSubstationTopology.stationA_TSN.sc forwardServiceRegistration true
par SmartSubstationTopology.stationA_TSN.sc forwardProtocolRegistration true
par SmartSubstationTopology.stationA_TSN.llc typename "\"inet.linklayer.ieee8022.Ieee8022Llc\""
par SmartSubstationTopology.stationA_TSN.llc registerProtocol true
par SmartSubstationTopology.stationA_TSN.cb typename "\"inet.common.MessageDispatcher\""
par SmartSubstationTopology.stationA_TSN.cb displayStringTextFormat "\"processed %p pk (%l)\""
par SmartSubstationTopology.stationA_TSN.cb forwardServiceRegistration true
par SmartSubstationTopology.stationA_TSN.cb forwardProtocolRegistration true
par SmartSubstationTopology.stationA_TSN.bridging typename "\"inet.linklayer.ieee8021d.relay.Ieee8021dRelay\""
par SmartSubstationTopology.stationA_TSN.bridging macTableModule "\"SmartSubstationTopology.stationA_TSN.macTable\""
par SmartSubstationTopology.stationA_TSN.bridging interfaceTableModule "\"SmartSubstationTopology.stationA_TSN.interfaceTable\""
par SmartSubstationTopology.stationA_TSN.bridging displayStringTextFormat "\"proc: %p\\ndisc: %d\""
scalar SmartSubstationTopology.stationA_TSN.bridging "processed frames" 0
scalar SmartSubstationTopology.stationA_TSN.bridging "discarded frames" 0
scalar SmartSubstationTopology.stationA_TSN.bridging "number of received BPDUs from STP module" 0
scalar SmartSubstationTopology.stationA_TSN.bridging "number of received frames from network (including BPDUs)" 0
scalar SmartSubstationTopology.stationA_TSN.bridging "number of dropped frames (including BPDUs)" 0
scalar SmartSubstationTopology.stationA_TSN.bridging "number of delivered BPDUs to the STP module" 0
scalar SmartSubstationTopology.stationA_TSN.bridging "number of dispatched BPDU frames to the network" 0
scalar SmartSubstationTopology.stationA_TSN.bridging "number of dispatched non-BDPU frames to the network" 0
scalar SmartSubstationTopology.stationA_TSN.bridging packetDropped:count 0
attr interpolationmode none
attr recordingmode count
attr title "packets dropped, count"
scalar SmartSubstationTopology.stationA_TSN.bridging packetDropped:sum(packetBytes) 0
attr interpolationmode none
attr recordingmode sum(packetBytes)
attr title "packets dropped, sum(packetBytes)"
par SmartSubstationTopology.stationA_TSN.bl typename "\"inet.common.MessageDispatcher\""
par SmartSubstationTopology.stationA_TSN.bl displayStringTextFormat "\"processed %p pk (%l)\""
par SmartSubstationTopology.stationA_TSN.bl forwardServiceRegistration true
par SmartSubstationTopology.stationA_TSN.bl forwardProtocolRegistration true
par SmartSubstationTopology.stationA_TSN.ethernet typename "\"inet.linklayer.ethernet.basic.EthernetEncapsulation\""
par SmartSubstationTopology.stationA_TSN.ethernet registerProtocol true
par SmartSubstationTopology.stationA_TSN.ethernet interfaceTableModule "\"SmartSubstationTopology.stationA_TSN.interfaceTable\""
par SmartSubstationTopology.stationA_TSN.ethernet fcsMode "\"declared\""
attr enum declared,computed
par SmartSubstationTopology.stationA_TSN.ethernet stopOperationExtraTime -1s
attr unit s
par SmartSubstationTopology.stationA_TSN.ethernet stopOperationTimeout 2s
attr unit s
scalar SmartSubstationTopology.stationA_TSN.ethernet decapPk:count 0
attr interpolationmode none
attr recordingmode count
attr source decapPk
attr title "packets decapsulated, count"
scalar SmartSubstationTopology.stationA_TSN.ethernet decapPk:sum(packetBytes) 0
attr interpolationmode none
attr recordingmode sum(packetBytes)
attr source decapPk
attr title "packets decapsulated, sum(packetBytes)"
scalar SmartSubstationTopology.stationA_TSN.ethernet encapPk:count 0
attr interpolationmode none
attr recordingmode count
attr source encapPk
attr title "packets encapsulated, count"
scalar SmartSubstationTopology.stationA_TSN.ethernet encapPk:sum(packetBytes) 0
attr interpolationmode none
attr recordingmode sum(packetBytes)
attr source encapPk
attr title "packets encapsulated, sum(packetBytes)"
scalar SmartSubstationTopology.stationA_TSN.ethernet pauseSent:count 0
attr recordingmode count
attr title "pause sent, count"
scalar SmartSubstationTopology.stationA_TSN.ethernet pauseSent:sum 0
attr recordingmode sum
attr title "pause sent, sum"
par SmartSubstationTopology.stationA_TSN.ieee8021q.qTagHeaderInserter.out.channel typename "\"ned.IdealChannel\""
par SmartSubstationTopology.stationA_TSN.ieee8021q.lowerLayerIn.channel typename "\"ned.IdealChannel\""
par SmartSubstationTopology.stationA_TSN.ieee8021q.upperLayerIn.channel typename "\"ned.IdealChannel\""
par SmartSubstationTopology.stationA_TSN.ieee8021q.qTagHeaderChecker.out.channel typename "\"ned.IdealChannel\""
par SmartSubstationTopology.stationA_TSN.ieee8021q.qTagHeaderInserter typename "\"inet.linklayer.ieee8021q.Ieee8021qTagEpdHeaderInserter\""
par SmartSubstationTopology.stationA_TSN.ieee8021q.qTagHeaderInserter displayStringTextFormat "\"processed %p pk (%l)\""
par SmartSubstationTopology.stationA_TSN.ieee8021q.qTagHeaderInserter vlanTagType "\"c\""
attr enum c,s
par SmartSubstationTopology.stationA_TSN.ieee8021q.qTagHeaderInserter nextProtocol "\"ethernetmac\""
par SmartSubstationTopology.stationA_TSN.ieee8021q.qTagHeaderInserter defaultVlanId -1
par SmartSubstationTopology.stationA_TSN.ieee8021q.qTagHeaderInserter defaultPcp -1
par SmartSubstationTopology.stationA_TSN.ieee8021q.qTagHeaderInserter defaultUserPriority -1
par SmartSubstationTopology.stationA_TSN.ieee8021q.qTagHeaderInserter defaultDropEligible -1
scalar SmartSubstationTopology.stationA_TSN.ieee8021q.qTagHeaderInserter outgoingPackets:count 0
attr recordingmode count
attr source "merge(packetPushedOut, packetPulledOut)"
attr title "outgoing packets, count"
attr unit pk
scalar SmartSubstationTopology.stationA_TSN.ieee8021q.qTagHeaderInserter outgoingPacketLengths:sum 0
attr interpolationmode none
attr recordingmode sum
attr source "packetLength(merge(packetPushedOut, packetPulledOut))"
attr title "outgoing packet lengths, sum"
attr unit b
statistic SmartSubstationTopology.stationA_TSN.ieee8021q.qTagHeaderInserter outgoingPacketLengths:histogram
field count 0
field mean nan
field stddev nan
field min nan
field max nan
field sum 0
field sqrsum 0
attr interpolationmode none
attr recordingmode histogram
[...]
attr title "packet drop: incorrectly received, sum(packetBytes)"
scalar SmartSubstationTopology.otnDevice.eth[1].mac packetDropInterfaceDown:count 0
attr interpolationmode none
attr recordingmode count
attr source packetDropReasonIsInterfaceDown(packetDropped)
attr title "packet drop: interface down, count"
scalar SmartSubstationTopology.otnDevice.eth[1].mac packetDropInterfaceDown:sum(packetBytes) 0
attr interpolationmode none
attr recordingmode sum(packetBytes)
attr source packetDropReasonIsInterfaceDown(packetDropped)
attr title "packet drop: interface down, sum(packetBytes)"
scalar SmartSubstationTopology.otnDevice.eth[1].mac packetDropNotAddressedToUs:count 0
attr interpolationmode none
attr recordingmode count
attr source packetDropReasonIsNotAddressedToUs(packetDropped)
attr title "packet drop: not addressed to us, count"
scalar SmartSubstationTopology.otnDevice.eth[1].mac packetDropNotAddressedToUs:sum(packetBytes) 0
attr interpolationmode none
attr recordingmode sum(packetBytes)
attr source packetDropReasonIsNotAddressedToUs(packetDropped)
attr title "packet drop: not addressed to us, sum(packetBytes)"
scalar SmartSubstationTopology.otnDevice.eth[1].mac rxPausePkUnits:count 0
attr interpolationmode none
attr recordingmode count
attr title "pause units received, count"
scalar SmartSubstationTopology.otnDevice.eth[1].mac rxPausePkUnits:sum 0
attr interpolationmode none
attr recordingmode sum
attr title "pause units received, sum"
scalar SmartSubstationTopology.otnDevice.eth[1].mac txPausePkUnits:count 0
attr interpolationmode none
attr recordingmode count
attr title "pause units sent, count"
scalar SmartSubstationTopology.otnDevice.eth[1].mac txPausePkUnits:sum 0
attr interpolationmode none
attr recordingmode sum
attr title "pause units sent, sum"
scalar SmartSubstationTopology.otnDevice.eth[1].mac rxPkOk:count 0
attr interpolationmode none
attr recordingmode count
attr source rxPkOk
attr title "packets received OK, count"
scalar SmartSubstationTopology.otnDevice.eth[1].mac rxPkOk:sum(packetBytes) 0
attr interpolationmode none
attr recordingmode sum(packetBytes)
attr source rxPkOk
attr title "packets received OK, sum(packetBytes)"
par SmartSubstationTopology.otnDevice.eth[1] typename "\"inet.linklayer.ethernet.EthernetInterface\""
par SmartSubstationTopology.otnDevice.eth[1] displayStringTextFormat "\"%a (%i)\\n%m\""
par SmartSubstationTopology.otnDevice.eth[1] recordPcap false
par SmartSubstationTopology.otnDevice.eth[1] numPcapRecorders 0
par SmartSubstationTopology.otnDevice.eth[1] interfaceTableModule "\"SmartSubstationTopology.otnDevice.interfaceTable\""
par SmartSubstationTopology.otnDevice.eth[1] protocol "\"ethernetmac\""
par SmartSubstationTopology.otnDevice.eth[1] address "\"0A-AA-00-00-00-58\""
attr mutable ""
par SmartSubstationTopology.otnDevice.eth[1] duplexMode true
par SmartSubstationTopology.otnDevice.eth[1] csmacdSupport false
par SmartSubstationTopology.otnDevice.eth[1] bitrate 0bps
attr unit bps
par SmartSubstationTopology.otnDevice.eth[1] fcsMode "\"declared\""
attr enum declared,computed
scalar SmartSubstationTopology.otnDevice.eth[1] packetDropInterfaceDown:count 0
attr interpolationmode none
attr recordingmode count
attr source packetDropReasonIsInterfaceDown(packetDropped)
attr title "packet drops: interface down, count"
scalar SmartSubstationTopology.otnDevice.eth[1] packetDropInterfaceDown:sum(packetBytes) 0
attr interpolationmode none
attr recordingmode sum(packetBytes)
attr source packetDropReasonIsInterfaceDown(packetDropped)
attr title "packet drops: interface down, sum(packetBytes)"
scalar SmartSubstationTopology.otnDevice.eth[1] packetDropNoCarrier:count 0
attr interpolationmode none
attr recordingmode count
attr source packetDropReasonIsNoCarrier(packetDropped)
attr title "packet drops: no carrier, count"
scalar SmartSubstationTopology.otnDevice.eth[1] packetDropNoCarrier:sum(packetBytes) 0
attr interpolationmode none
attr recordingmode sum(packetBytes)
attr source packetDropReasonIsNoCarrier(packetDropped)
attr title "packet drops: no carrier, sum(packetBytes)"
par SmartSubstationTopology.otnDevice.ipv4.transportIn.channel typename "\"ned.IdealChannel\""
par SmartSubstationTopology.otnDevice.ipv4.up.out[0].channel typename "\"ned.IdealChannel\""
par SmartSubstationTopology.otnDevice.ipv4.lp.out[2].channel typename "\"ned.IdealChannel\""
par SmartSubstationTopology.otnDevice.ipv4.ifIn.channel typename "\"ned.IdealChannel\""
par SmartSubstationTopology.otnDevice.ipv4.configurator typename "\"inet.networklayer.configurator.ipv4.Ipv4NodeConfigurator\""
par SmartSubstationTopology.otnDevice.ipv4.configurator interfaceTableModule "\"SmartSubstationTopology.otnDevice.interfaceTable\""
par SmartSubstationTopology.otnDevice.ipv4.configurator routingTableModule "\"SmartSubstationTopology.otnDevice.ipv4.routingTable\""
par SmartSubstationTopology.otnDevice.ipv4.configurator networkConfiguratorModule "\"configurator\""
par SmartSubstationTopology.otnDevice.ipv4.configurator configureRoutingTable true
par SmartSubstationTopology.otnDevice.ipv4.routingTable typename "\"inet.networklayer.ipv4.Ipv4RoutingTable\""
par SmartSubstationTopology.otnDevice.ipv4.routingTable interfaceTableModule "\"SmartSubstationTopology.otnDevice.interfaceTable\""
par SmartSubstationTopology.otnDevice.ipv4.routingTable routerId "\"auto\""
par SmartSubstationTopology.otnDevice.ipv4.routingTable netmaskRoutes "\"*\""
par SmartSubstationTopology.otnDevice.ipv4.routingTable forwarding true
par SmartSubstationTopology.otnDevice.ipv4.routingTable multicastForwarding false
par SmartSubstationTopology.otnDevice.ipv4.routingTable useAdminDist false
par SmartSubstationTopology.otnDevice.ipv4.routingTable routingFile "\"\""
par SmartSubstationTopology.otnDevice.ipv4.natTable typename "\"inet.networklayer.ipv4.Ipv4NatTable\""
par SmartSubstationTopology.otnDevice.ipv4.natTable networkProtocolModule "\"^.ip\""
par SmartSubstationTopology.otnDevice.ipv4.natTable config "<config/> at content:1"
par SmartSubstationTopology.otnDevice.ipv4.up typename "\"inet.common.MessageDispatcher\""
par SmartSubstationTopology.otnDevice.ipv4.up displayStringTextFormat "\"processed %p pk (%l)\""
par SmartSubstationTopology.otnDevice.ipv4.up forwardServiceRegistration true
par SmartSubstationTopology.otnDevice.ipv4.up forwardProtocolRegistration true
par SmartSubstationTopology.otnDevice.ipv4.igmp typename "\"inet.networklayer.ipv4.Igmpv2\""
par SmartSubstationTopology.otnDevice.ipv4.igmp interfaceTableModule "\"SmartSubstationTopology.otnDevice.interfaceTable\""
par SmartSubstationTopology.otnDevice.ipv4.igmp routingTableModule "\"SmartSubstationTopology.otnDevice.ipv4.routingTable\""
par SmartSubstationTopology.otnDevice.ipv4.igmp crcMode "\"declared\""
attr enum declared,computed
par SmartSubstationTopology.otnDevice.ipv4.igmp enabled true
par SmartSubstationTopology.otnDevice.ipv4.igmp robustnessVariable 2
par SmartSubstationTopology.otnDevice.ipv4.igmp queryInterval 125s
attr unit s
par SmartSubstationTopology.otnDevice.ipv4.igmp queryResponseInterval 10s
attr unit s
par SmartSubstationTopology.otnDevice.ipv4.igmp groupMembershipInterval 260s
attr unit s
par SmartSubstationTopology.otnDevice.ipv4.igmp otherQuerierPresentInterval 255s
attr unit s
par SmartSubstationTopology.otnDevice.ipv4.igmp startupQueryInterval 31.25s
attr unit s
par SmartSubstationTopology.otnDevice.ipv4.igmp startupQueryCount 2
par SmartSubstationTopology.otnDevice.ipv4.igmp lastMemberQueryInterval 1s
attr unit s
par SmartSubstationTopology.otnDevice.ipv4.igmp lastMemberQueryCount 2
par SmartSubstationTopology.otnDevice.ipv4.igmp unsolicitedReportInterval 10s
attr unit s
par SmartSubstationTopology.otnDevice.ipv4.icmp typename "\"inet.networklayer.ipv4.Icmp\""
par SmartSubstationTopology.otnDevice.ipv4.icmp interfaceTableModule "\"SmartSubstationTopology.otnDevice.interfaceTable\""
par SmartSubstationTopology.otnDevice.ipv4.icmp routingTableModule "\"SmartSubstationTopology.otnDevice.ipv4.routingTable\""
par SmartSubstationTopology.otnDevice.ipv4.icmp crcMode "\"declared\""
attr enum declared,computed
attr mutable ""
par SmartSubstationTopology.otnDevice.ipv4.icmp quoteLength 8B
attr mutable ""
attr unit B
par SmartSubstationTopology.otnDevice.ipv4.mp typename "\"inet.common.MessageDispatcher\""
par SmartSubstationTopology.otnDevice.ipv4.mp displayStringTextFormat "\"processed %p pk (%l)\""
par SmartSubstationTopology.otnDevice.ipv4.mp forwardServiceRegistration true
par SmartSubstationTopology.otnDevice.ipv4.mp forwardProtocolRegistration true
par SmartSubstationTopology.otnDevice.ipv4.ip typename "\"inet.networklayer.ipv4.Ipv4\""
par SmartSubstationTopology.otnDevice.ipv4.ip interfaceTableModule "\"SmartSubstationTopology.otnDevice.interfaceTable\""
par SmartSubstationTopology.otnDevice.ipv4.ip routingTableModule "\"SmartSubstationTopology.otnDevice.ipv4.routingTable\""
par SmartSubstationTopology.otnDevice.ipv4.ip arpModule "\"SmartSubstationTopology.otnDevice.ipv4.arp\""
par SmartSubstationTopology.otnDevice.ipv4.ip icmpModule "\"SmartSubstationTopology.otnDevice.ipv4.icmp\""
par SmartSubstationTopology.otnDevice.ipv4.ip crcMode "\"declared\""
attr enum declared,computed
par SmartSubstationTopology.otnDevice.ipv4.ip timeToLive 32
par SmartSubstationTopology.otnDevice.ipv4.ip multicastTimeToLive 32
par SmartSubstationTopology.otnDevice.ipv4.ip fragmentTimeout 60s
attr unit s
par SmartSubstationTopology.otnDevice.ipv4.ip limitedBroadcast false
par SmartSubstationTopology.otnDevice.ipv4.ip directBroadcastInterfaces "\"\""
scalar SmartSubstationTopology.otnDevice.ipv4.ip packetDropAddressResolutionFailed:count 0
attr interpolationmode none
attr recordingmode count
attr source packetDropReasonIsAddressResolutionFailed(packetDropped)
attr title "packet drop: address resolution failed, count"
scalar SmartSubstationTopology.otnDevice.ipv4.ip packetDropAddressResolutionFailed:sum(packetBytes) 0
attr interpolationmode none
attr recordingmode sum(packetBytes)
attr source packetDropReasonIsAddressResolutionFailed(packetDropped)
attr title "packet drop: address resolution failed, sum(packetBytes)"
scalar SmartSubstationTopology.otnDevice.ipv4.ip packetDropHopLimitReached:count 0
attr interpolationmode none
attr recordingmode count
attr source packetDropReasonIsHopLimitReached(packetDropped)
attr title "packet drop: hop limit reached, count"
scalar SmartSubstationTopology.otnDevice.ipv4.ip packetDropHopLimitReached:sum(packetBytes) 0
attr interpolationmode none
attr recordingmode sum(packetBytes)
attr source packetDropReasonIsHopLimitReached(packetDropped)
attr title "packet drop: hop limit reached, sum(packetBytes)"
scalar SmartSubstationTopology.otnDevice.ipv4.ip packetDropForwardingDisabled:count 0
attr interpolationmode none
attr recordingmode count
attr source packetDropReasonIsForwardingDisabled(packetDropped)
attr title "packet drop: forwarding disabled, count"
scalar SmartSubstationTopology.otnDevice.ipv4.ip packetDropForwardingDisabled:sum(packetBytes) 0
attr interpolationmode none
attr recordingmode sum(packetBytes)
attr source packetDropReasonIsForwardingDisabled(packetDropped)
attr title "packet drop: forwarding disabled, sum(packetBytes)"
scalar SmartSubstationTopology.otnDevice.ipv4.ip packetDropNoInterfaceFound:count 0
attr interpolationmode none
attr recordingmode count
attr source packetDropReasonIsNoInterfaceFound(packetDropped)
attr title "packet drop: no interface found, count"
scalar SmartSubstationTopology.otnDevice.ipv4.ip packetDropNoInterfaceFound:sum(packetBytes) 0
attr interpolationmode none
attr recordingmode sum(packetBytes)
attr source packetDropReasonIsNoInterfaceFound(packetDropped)
attr title "packet drop: no interface found, sum(packetBytes)"
scalar SmartSubstationTopology.otnDevice.ipv4.ip packetDropNoRouteFound:count 0
attr interpolationmode none
attr recordingmode count
attr source packetDropReasonIsNoRouteFound(packetDropped)
attr title "packet drop: no route found, count"
scalar SmartSubstationTopology.otnDevice.ipv4.ip packetDropNoRouteFound:sum(packetBytes) 0
attr interpolationmode none
attr recordingmode sum(packetBytes)
attr source packetDropReasonIsNoRouteFound(packetDropped)
attr title "packet drop: no route found, sum(packetBytes)"
scalar SmartSubstationTopology.otnDevice.ipv4.ip packetDropUndefined:count 0
attr interpolationmode none
attr recordingmode count
attr source packetDropReasonIsUndefined(packetDropped)
attr title "packet drop: undefined, count"
scalar SmartSubstationTopology.otnDevice.ipv4.ip packetDropUndefined:sum(packetBytes) 0
attr interpolationmode none
attr recordingmode sum(packetBytes)
attr source packetDropReasonIsUndefined(packetDropped)
attr title "packet drop: undefined, sum(packetBytes)"
par SmartSubstationTopology.otnDevice.ipv4.arp typename "\"inet.networklayer.arp.ipv4.Arp\""
par SmartSubstationTopology.otnDevice.ipv4.arp interfaceTableModule "\"SmartSubstationTopology.otnDevice.interfaceTable\""
par SmartSubstationTopology.otnDevice.ipv4.arp routingTableModule "\"SmartSubstationTopology.otnDevice.ipv4.routingTable\""
par SmartSubstationTopology.otnDevice.ipv4.arp retryTimeout 1s
attr unit s
par SmartSubstationTopology.otnDevice.ipv4.arp retryCount 3
par SmartSubstationTopology.otnDevice.ipv4.arp cacheTimeout 120s
attr unit s
par SmartSubstationTopology.otnDevice.ipv4.arp proxyArpInterfaces "\"*\""
scalar SmartSubstationTopology.otnDevice.ipv4.arp arpReplySent:count 0
attr recordingmode count
attr source arpReplySent
attr title "ARP replies sent, count"
scalar SmartSubstationTopology.otnDevice.ipv4.arp arpReplySent:sum(packetBytes) 0
attr recordingmode sum(packetBytes)
attr source arpReplySent
attr title "ARP replies sent, sum(packetBytes)"
scalar SmartSubstationTopology.otnDevice.ipv4.arp arpRequestSent:count 0
attr recordingmode count
attr source arpRequestSent
attr title "ARP request sent, count"
scalar SmartSubstationTopology.otnDevice.ipv4.arp arpRequestSent:sum(packetBytes) 0
attr recordingmode sum(packetBytes)
attr source arpRequestSent
attr title "ARP request sent, sum(packetBytes)"
scalar SmartSubstationTopology.otnDevice.ipv4.arp arpResolutionFailed:count 0
attr recordingmode count
attr title "ARP failed resolutions, count"
scalar SmartSubstationTopology.otnDevice.ipv4.arp arpResolutionCompleted:count 0
attr recordingmode count
attr title "ARP completed resolutions, count"
scalar SmartSubstationTopology.otnDevice.ipv4.arp arpResolutionInitiated:count 0
attr recordingmode count
attr title "ARP initiated resolutions, count"
par SmartSubstationTopology.otnDevice.ipv4.lp typename "\"inet.common.MessageDispatcher\""
par SmartSubstationTopology.otnDevice.ipv4.lp displayStringTextFormat "\"processed %p pk (%l)\""
par SmartSubstationTopology.otnDevice.ipv4.lp forwardServiceRegistration true
par SmartSubstationTopology.otnDevice.ipv4.lp forwardProtocolRegistration true
par SmartSubstationTopology.otnDevice.ipv4 typename "\"inet.networklayer.ipv4.Ipv4NetworkLayer\""
par SmartSubstationTopology.otnDevice.ipv4 forwarding true
par SmartSubstationTopology.otnDevice.ipv4 multicastForwarding false
par SmartSubstationTopology.otnDevice.ipv4 interfaceTableModule "\"SmartSubstationTopology.otnDevice.interfaceTable\""
par SmartSubstationTopology.otnDevice.ipv4 displayStringTextFormat "\"%i\""
par SmartSubstationTopology.otnDevice.nl typename "\"inet.common.MessageDispatcher\""
par SmartSubstationTopology.otnDevice.nl displayStringTextFormat "\"processed %p pk (%l)\""
par SmartSubstationTopology.otnDevice.nl forwardServiceRegistration true
par SmartSubstationTopology.otnDevice.nl forwardProtocolRegistration true
par SmartSubstationTopology.otnDevice.udp typename "\"inet.transportlayer.udp.Udp\""
par SmartSubstationTopology.otnDevice.udp interfaceTableModule "\"SmartSubstationTopology.otnDevice.interfaceTable\""
par SmartSubstationTopology.otnDevice.udp icmpModule "\"^.ipv4.icmp\""
par SmartSubstationTopology.otnDevice.udp icmpv6Module "\"^.ipv6.icmpv6\""
par SmartSubstationTopology.otnDevice.udp crcMode "\"declared\""
attr enum disabled,declared,computed
par SmartSubstationTopology.otnDevice.udp defaultMulticastLoop true
scalar SmartSubstationTopology.otnDevice.udp packetReceived:count 0
attr interpolationmode none
attr recordingmode count
attr source packetReceived
attr title "packets received, count"
scalar SmartSubstationTopology.otnDevice.udp packetReceived:sum(packetBytes) 0
attr interpolationmode none
attr recordingmode sum(packetBytes)
attr source packetReceived
attr title "packets received, sum(packetBytes)"
scalar SmartSubstationTopology.otnDevice.udp packetSent:count 0
attr interpolationmode none
attr recordingmode count
attr source packetSent
attr title "packets sent, count"
scalar SmartSubstationTopology.otnDevice.udp packetSent:sum(packetBytes) 0
attr interpolationmode none
attr recordingmode sum(packetBytes)
attr source packetSent
attr title "packets sent, sum(packetBytes)"
scalar SmartSubstationTopology.otnDevice.udp passedUpPk:count 0
attr interpolationmode none
attr recordingmode count
attr source packetSentToUpper
attr title "packets passed up, count"
scalar SmartSubstationTopology.otnDevice.udp droppedPkWrongPort:count 0
attr interpolationmode none
attr recordingmode count
attr source packetDropReasonIsNoPortFound(packetDropped)
attr title "packets dropped (wrong port), count"
scalar SmartSubstationTopology.otnDevice.udp droppedPkBadChecksum:count 0
attr interpolationmode none
attr recordingmode count
attr source packetDropReasonIsIncorrectlyReceived(packetDropped)
attr title "packets dropped (checksum error), count"
par SmartSubstationTopology.otnDevice.tn typename "\"inet.common.MessageDispatcher\""
par SmartSubstationTopology.otnDevice.tn displayStringTextFormat "\"processed %p pk (%l)\""
par SmartSubstationTopology.otnDevice.tn forwardServiceRegistration true
par SmartSubstationTopology.otnDevice.tn forwardProtocolRegistration true
par SmartSubstationTopology.otnDevice.at typename "\"inet.common.MessageDispatcher\""
par SmartSubstationTopology.otnDevice.at displayStringTextFormat "\"processed %p pk (%l)\""
par SmartSubstationTopology.otnDevice.at forwardServiceRegistration true
par SmartSubstationTopology.otnDevice.at forwardProtocolRegistration true
par SmartSubstationTopology.otnDevice typename "\"inet.node.inet.Router\""
par SmartSubstationTopology.otnDevice hasStatus false
par SmartSubstationTopology.otnDevice osgModel "\"\""
par SmartSubstationTopology.otnDevice osgModelColor "\"\""
par SmartSubstationTopology.otnDevice canvasImage "\"\""
par SmartSubstationTopology.otnDevice canvasImageColor "\"\""
par SmartSubstationTopology.otnDevice recordPcap false
par SmartSubstationTopology.otnDevice numPcapRecorders 0
par SmartSubstationTopology.otnDevice numLoInterfaces 1
par SmartSubstationTopology.otnDevice numWlanInterfaces 0
par SmartSubstationTopology.otnDevice numEthInterfaces 0
par SmartSubstationTopology.otnDevice numPppInterfaces 0
par SmartSubstationTopology.otnDevice numTunInterfaces 0
par SmartSubstationTopology.otnDevice numVirtInterfaces 0
par SmartSubstationTopology.otnDevice fcsMode "\"declared\""
attr enum declared,computed
par SmartSubstationTopology.otnDevice hasIpv4 true
par SmartSubstationTopology.otnDevice hasIpv6 false
par SmartSubstationTopology.otnDevice hasGn false
par SmartSubstationTopology.otnDevice forwarding true
par SmartSubstationTopology.otnDevice multicastForwarding false
par SmartSubstationTopology.otnDevice hasUdp true
par SmartSubstationTopology.otnDevice hasTcp false
par SmartSubstationTopology.otnDevice hasSctp false
par SmartSubstationTopology.otnDevice numApps 0
par SmartSubstationTopology.otnDevice hasEigrp false
par SmartSubstationTopology.otnDevice hasOspf false
par SmartSubstationTopology.otnDevice hasRip false
par SmartSubstationTopology.otnDevice hasBgp false
par SmartSubstationTopology.otnDevice hasPim false
par SmartSubstationTopology.otnDevice hasDhcp false
par SmartSubstationTopology typename "\"SmartSubstationTopology\""

