file 196651 1769242584                                          
version 3
run simple-0-20260124-16:15:30-5744
attr configname simple
attr datetime 20260124-16:15:30
attr datetimef 20260124-161530
attr experiment simple
attr inifile omnetpp.ini
attr iterationvars ""
attr iterationvarsd ""
attr iterationvarsf ""
attr measurement ""
attr network SmartSubstationTopology
attr processid 5744
attr repetition 0
attr replication #0
attr resultdir results
attr runnumber 0
attr seedset 0
config image-path ../inet4.5/images
config network SmartSubstationTopology
config sim-time-limit 3s
config cmdenv-express-mode false
config *.configurator.typename IPv4NetworkConfigurator
config **.hasIpv4 true
config **.hasUdp true
config **.ipv4.forwarding true
config *.stationA_Protection.numApps 1
config *.stationA_Protection.app[0].typename UdpBasicApp
config *.stationA_Protection.app[0].destAddress "\"stationB_Protection\""
config *.stationA_Protection.app[0].destPort 10000
config *.stationA_Protection.app[0].messageLength 100B
config *.stationA_Protection.app[0].sendInterval 1s
config *.stationA_Protection.app[0].startTime 0.5s
config *.stationB_Protection.numApps 1
config *.stationB_Protection.app[0].typename UdpSink
config *.stationB_Protection.app[0].localPort 10000
config **.app[*].source.verbose true
config **.app[*].sink.verbose true
config **.udp.verbose true
config **.ipv4.verbose true
config **.ipv4.routingTable.verbose true
config **.ipv4.forwarding.verbose true
config **.arp.verbose true
config **.eth.verbose true
config *.stationA_TSN.**.verbose true
config *.stationB_TSN.**.verbose true
config *.borderGateway1.**.verbose true
config *.borderGateway2.**.verbose true
config *.otnDevice.**.verbose true
config *.stationA_MU.numApps 0
config *.stationA_IT.numApps 0
config *.stationB_MU.numApps 0
config *.stationB_IT.numApps 0
config network SmartSubstationTopology
config sim-time-limit 50s
config cmdenv-express-mode false
config record-eventlog true
config **.udp.verbose true
config **.ipv4.verbose true
config **.arp.verbose true
config *.configurator.typename IPv4NetworkConfigurator
config **.hasIpv4 true
config **.hasUdp true
config **.hasTcp false
config *.stationA_MU.numApps 1
config *.stationA_MU.app[0].typename UdpBasicApp
config *.stationA_MU.app[0].localPort 1000
config *.stationA_MU.app[0].destAddress "\"stationA_Protection\""
config *.stationA_MU.app[0].destPort 2000
config *.stationA_MU.app[0].messageLength 140B
config *.stationA_MU.app[0].sendInterval 250us
config *.stationA_MU.app[0].startTime 0.2s
config *.stationA_MU.app[0].packetName "\"SV_Packet\""
config *.stationA_MU.app[0].dscp 56
config *.stationA_MU.app[0].verbose true
config *.stationA_Protection.numApps 3
config *.stationA_Protection.app[0].typename UdpSink
config *.stationA_Protection.app[0].localPort 2000
config *.stationA_Protection.app[0].verbose true
config *.stationA_Protection.app[1].typename UdpBasicApp
config *.stationA_Protection.app[1].localPort 2001
config *.stationA_Protection.app[1].destAddress "\"stationA_IT\""
config *.stationA_Protection.app[1].destPort 3000
config *.stationA_Protection.app[1].messageLength 120B
config *.stationA_Protection.app[1].sendInterval exponential(2s)
config *.stationA_Protection.app[1].startTime 0.8s
config *.stationA_Protection.app[1].packetName "\"GOOSE_Packet\""
config *.stationA_Protection.app[1].dscp 48
config *.stationA_Protection.app[1].verbose true
config *.stationA_IT.numApps 1
config *.stationA_IT.app[0].typename UdpSink
config *.stationA_IT.app[0].localPort 3000
config *.stationA_IT.app[0].verbose true
config *.stationA_Protection.app[2].typename UdpBasicApp
config *.stationA_Protection.app[2].localPort 2002
config *.stationA_Protection.app[2].destAddress "\"stationB_Protection\""
config *.stationA_Protection.app[2].destPort 4000
config *.stationA_Protection.app[2].messageLength 100B
config *.stationA_Protection.app[2].sendInterval 1.5s
config *.stationA_Protection.app[2].startTime 1.2s
config *.stationA_Protection.app[2].packetName "\"CrossStation_Packet\""
config *.stationA_Protection.app[2].verbose true
config *.stationB_Protection.numApps 1
config *.stationB_Protection.app[0].typename UdpSink
config *.stationB_Protection.app[0].localPort 4000
config *.stationB_Protection.app[0].verbose true
config *.stationA_BusProtection.numApps 1
config *.stationA_BusProtection.app[0].typename UdpSink
config *.stationA_BusProtection.app[0].localPort 5000
config *.stationA_BusProtection.app[0].verbose true
config *.stationA_BusProtection_MU1.numApps 1
config *.stationA_BusProtection_MU1.app[0].typename UdpBasicApp
config *.stationA_BusProtection_MU1.app[0].localPort 5101
config *.stationA_BusProtection_MU1.app[0].destAddress "\"stationA_BusProtection\""
config *.stationA_BusProtection_MU1.app[0].destPort 5000
config *.stationA_BusProtection_MU1.app[0].messageLength 140B
config *.stationA_BusProtection_MU1.app[0].sendInterval 250us
config *.stationA_BusProtection_MU1.app[0].startTime 0.3s
config *.stationA_BusProtection_MU1.app[0].packetName "\"Bus_SV_1\""
config *.stationA_BusProtection_MU1.app[0].dscp 56
config *.stationA_BusProtection_MU1.app[0].verbose true
config *.stationA_BusProtection_MU2.numApps 1
config *.stationA_BusProtection_MU2.app[0].typename UdpBasicApp
config *.stationA_BusProtection_MU2.app[0].localPort 5102
config *.stationA_BusProtection_MU2.app[0].destAddress "\"stationA_BusProtection\""
config *.stationA_BusProtection_MU2.app[0].destPort 5000
config *.stationA_BusProtection_MU2.app[0].messageLength 140B
config *.stationA_BusProtection_MU2.app[0].sendInterval 250us
config *.stationA_BusProtection_MU2.app[0].startTime 0.4s
config *.stationA_BusProtection_MU2.app[0].packetName "\"Bus_SV_2\""
config *.stationA_BusProtection_MU2.app[0].dscp 56
config *.stationA_BusProtection_MU2.app[0].verbose true
config *.stationA_BusProtection_MU3.numApps 1
config *.stationA_BusProtection_MU3.app[0].typename UdpBasicApp
config *.stationA_BusProtection_MU3.app[0].localPort 5103
config *.stationA_BusProtection_MU3.app[0].destAddress "\"stationA_BusProtection\""
config *.stationA_BusProtection_MU3.app[0].destPort 5000
config *.stationA_BusProtection_MU3.app[0].messageLength 140B
config *.stationA_BusProtection_MU3.app[0].sendInterval 250us
config *.stationA_BusProtection_MU3.app[0].startTime 0.5s
config *.stationA_BusProtection_MU3.app[0].packetName "\"Bus_SV_3\""
config *.stationA_BusProtection_MU3.app[0].dscp 56
config *.stationA_BusProtection_MU3.app[0].verbose true
config *.stationB_BusProtection.numApps 1
config *.stationB_BusProtection.app[0].typename UdpSink
config *.stationB_BusProtection.app[0].localPort 5000
config *.stationB_BusProtection.app[0].verbose true
config *.stationB_BusProtection_MU1.numApps 1
config *.stationB_BusProtection_MU1.app[0].typename UdpBasicApp
config *.stationB_BusProtection_MU1.app[0].localPort 5101
config *.stationB_BusProtection_MU1.app[0].destAddress "\"stationB_BusProtection\""
config *.stationB_BusProtection_MU1.app[0].destPort 5000
config *.stationB_BusProtection_MU1.app[0].messageLength 140B
config *.stationB_BusProtection_MU1.app[0].sendInterval 250us
config *.stationB_BusProtection_MU1.app[0].startTime 0.3s
config *.stationB_BusProtection_MU1.app[0].packetName "\"Bus_SV_1\""
config *.stationB_BusProtection_MU1.app[0].dscp 56
config *.stationB_BusProtection_MU1.app[0].verbose true
config *.stationB_BusProtection_MU2.numApps 1
config *.stationB_BusProtection_MU2.app[0].typename UdpBasicApp
config *.stationB_BusProtection_MU2.app[0].localPort 5102
config *.stationB_BusProtection_MU2.app[0].destAddress "\"stationB_BusProtection\""
config *.stationB_BusProtection_MU2.app[0].destPort 5000
config *.stationB_BusProtection_MU2.app[0].messageLength 140B
config *.stationB_BusProtection_MU2.app[0].sendInterval 250us
config *.stationB_BusProtection_MU2.app[0].startTime 0.4s
config *.stationB_BusProtection_MU2.app[0].packetName "\"Bus_SV_2\""
config *.stationB_BusProtection_MU2.app[0].dscp 56
config *.stationB_BusProtection_MU2.app[0].verbose true
config *.stationB_BusProtection_MU3.numApps 1
config *.stationB_BusProtection_MU3.app[0].typename UdpBasicApp
config *.stationB_BusProtection_MU3.app[0].localPort 5103
config *.stationB_BusProtection_MU3.app[0].destAddress "\"stationB_BusProtection\""
config *.stationB_BusProtection_MU3.app[0].destPort 5000
config *.stationB_BusProtection_MU3.app[0].messageLength 140B
config *.stationB_BusProtection_MU3.app[0].sendInterval 250us
config *.stationB_BusProtection_MU3.app[0].startTime 0.5s
config *.stationB_BusProtection_MU3.app[0].packetName "\"Bus_SV_3\""
config *.stationB_BusProtection_MU3.app[0].dscp 56
config *.stationB_BusProtection_MU3.app[0].verbose true
config *.stationA_Camera*.numApps 1
config *.stationA_Camera*.app[0].typename UdpBasicApp
config *.stationA_Camera*.app[0].destAddress "\"stationA_OMServer\""
config *.stationA_Camera*.app[0].destPort 6000
config *.stationA_Camera*.app[0].messageLength 10MB
config *.stationA_Camera*.app[0].sendInterval 33.33ms
config *.stationA_Camera*.app[0].startTime "uniform(0.5s, 1s)"
config *.stationA_Camera*.app[0].packetName "\"Video_Stream\""
config *.stationA_Camera*.app[0].dscp 0
config *.stationA_Camera*.app[0].verbose true
config *.stationB_Camera*.numApps 1
config *.stationB_Camera*.app[0].typename UdpBasicApp
config *.stationB_Camera*.app[0].destAddress "\"stationB_OMServer\""
config *.stationB_Camera*.app[0].destPort 6000
config *.stationB_Camera*.app[0].messageLength 10MB
config *.stationB_Camera*.app[0].sendInterval 33.33ms
config *.stationB_Camera*.app[0].startTime "uniform(0.5s, 1s)"
config *.stationB_Camera*.app[0].packetName "\"Video_Stream\""
config *.stationB_Camera*.app[0].dscp 0
config *.stationB_Camera*.app[0].verbose true
config *.stationA_OMServer.numApps 1
config *.stationA_OMServer.app[0].typename UdpSink
config *.stationA_OMServer.app[0].localPort 6000
config *.stationA_OMServer.app[0].verbose true
config *.stationB_OMServer.numApps 1
config *.stationB_OMServer.app[0].typename UdpSink
config *.stationB_OMServer.app[0].localPort 6000
config *.stationB_OMServer.app[0].verbose true
config *.stationA_VoIP1.numApps 1
config *.stationA_VoIP1.app[0].typename UdpBasicApp
config *.stationA_VoIP1.app[0].localPort 7001
config *.stationA_VoIP1.app[0].destAddress "\"stationB_VoIP1\""
config *.stationA_VoIP1.app[0].destPort 8001
config *.stationA_VoIP1.app[0].messageLength 200B
config *.stationA_VoIP1.app[0].sendInterval 20ms
config *.stationA_VoIP1.app[0].startTime 0.6s
config *.stationA_VoIP1.app[0].packetName "\"VoIP_Stream\""
config *.stationA_VoIP1.app[0].dscp 40
config *.stationA_VoIP1.app[0].verbose true
config *.stationA_VoIP2.numApps 1
config *.stationA_VoIP2.app[0].typename UdpBasicApp
config *.stationA_VoIP2.app[0].localPort 7002
config *.stationA_VoIP2.app[0].destAddress "\"stationB_VoIP2\""
config *.stationA_VoIP2.app[0].destPort 8002
config *.stationA_VoIP2.app[0].messageLength 200B
config *.stationA_VoIP2.app[0].sendInterval 20ms
config *.stationA_VoIP2.app[0].startTime 0.7s
config *.stationA_VoIP2.app[0].packetName "\"VoIP_Stream\""
config *.stationA_VoIP2.app[0].dscp 40
config *.stationA_VoIP2.app[0].verbose true
config *.stationB_VoIP1.numApps 1
config *.stationB_VoIP1.app[0].typename UdpSink
config *.stationB_VoIP1.app[0].localPort 8001
config *.stationB_VoIP1.app[0].verbose true
config *.stationB_VoIP2.numApps 1
config *.stationB_VoIP2.app[0].typename UdpSink
config *.stationB_VoIP2.app[0].localPort 8002
config *.stationB_VoIP2.app[0].verbose true
config *.stationB_VoIP1.numApps 2
config *.stationB_VoIP1.app[1].typename UdpBasicApp
config *.stationB_VoIP1.app[1].localPort 8003
config *.stationB_VoIP1.app[1].destAddress "\"stationA_VoIP1\""
config *.stationB_VoIP1.app[1].destPort 7003
config *.stationB_VoIP1.app[1].messageLength 200B
config *.stationB_VoIP1.app[1].sendInterval 20ms
config *.stationB_VoIP1.app[1].startTime 0.8s
config *.stationB_VoIP1.app[1].packetName "\"VoIP_Stream_Reply\""
config *.stationB_VoIP1.app[1].dscp 40
config *.stationB_VoIP1.app[1].verbose true
config *.stationB_VoIP2.numApps 2
config *.stationB_VoIP2.app[1].typename UdpBasicApp
config *.stationB_VoIP2.app[1].localPort 8004
config *.stationB_VoIP2.app[1].destAddress "\"stationA_VoIP2\""
config *.stationB_VoIP2.app[1].destPort 7004
config *.stationB_VoIP2.app[1].messageLength 200B
config *.stationB_VoIP2.app[1].sendInterval 20ms
config *.stationB_VoIP2.app[1].startTime 0.9s
config *.stationB_VoIP2.app[1].packetName "\"VoIP_Stream_Reply\""
config *.stationB_VoIP2.app[1].dscp 40
config *.stationB_VoIP2.app[1].verbose true
config *.stationA_VoIP1.numApps 2
config *.stationA_VoIP1.app[1].typename UdpSink
config *.stationA_VoIP1.app[1].localPort 7003
config *.stationA_VoIP1.app[1].verbose true
config *.stationA_VoIP2.numApps 2
config *.stationA_VoIP2.app[1].typename UdpSink
config *.stationA_VoIP2.app[1].localPort 7004
config *.stationA_VoIP2.app[1].verbose true
config *.stationA_OMServer.numApps 2
config *.stationA_OMServer.app[1].typename UdpBasicApp
config *.stationA_OMServer.app[1].localPort 9001
config *.stationA_OMServer.app[1].destAddress "\"stationB_OMServer\""
config *.stationA_OMServer.app[1].destPort 9002
config *.stationA_OMServer.app[1].messageLength "normal(1500B, 500B)"
config *.stationA_OMServer.app[1].sendInterval exponential(0.1s)
config *.stationA_OMServer.app[1].startTime 1s
config *.stationA_OMServer.app[1].packetName "\"OM_Data_Burst\""
config *.stationA_OMServer.app[1].dscp 0
config *.stationA_OMServer.app[1].verbose true
config *.stationB_OMServer.numApps 2
config *.stationB_OMServer.app[1].typename UdpSink
config *.stationB_OMServer.app[1].localPort 9002
config *.stationB_OMServer.app[1].verbose true
config *.stationB_OMServer.numApps 3
config *.stationB_OMServer.app[2].typename UdpBasicApp
config *.stationB_OMServer.app[2].localPort 9003
config *.stationB_OMServer.app[2].destAddress "\"stationA_OMServer\""
config *.stationB_OMServer.app[2].destPort 9004
config *.stationB_OMServer.app[2].messageLength "normal(1500B, 500B)"
config *.stationB_OMServer.app[2].sendInterval exponential(0.1s)
config *.stationB_OMServer.app[2].startTime 1.2s
config *.stationB_OMServer.app[2].packetName "\"OM_Data_Burst_Reply\""
config *.stationB_OMServer.app[2].dscp 0
config *.stationB_OMServer.app[2].verbose true
config *.stationA_OMServer.numApps 3
config *.stationA_OMServer.app[2].typename UdpSink
config *.stationA_OMServer.app[2].localPort 9004
config *.stationA_OMServer.app[2].verbose true
config **.app[*].source.packetSentSignal true
config **.app[*].sink.packetReceivedSignal true
config **.app[*].sink.endToEndDelayStatistic.record true
config **.app[*].sink.delayHistogram.record true
config **.app[*].sink.numReceivedStatistic.record true
config **.app[*].sink.throughputStatistic.record true
config **.app[*].sink.jitterStatistic.record true
config **.app[*].sink.jitterHistogram.record true
config *.stationA_VoIP*.app[*].sink.delayThreshold 150ms
config *.stationA_VoIP*.app[*].sink.jitterThreshold 30ms
config *.stationB_VoIP*.app[*].sink.delayThreshold 150ms
config *.stationB_VoIP*.app[*].sink.jitterThreshold 30ms
config *.stationA_MU.app[0].sink.delayThreshold 30ms
config *.stationA_MU.app[0].sink.jitterThreshold 250us
config *.stationA_BusProtection_MU*.app[*].sink.delayThreshold 30ms
config *.stationA_BusProtection_MU*.app[*].sink.jitterThreshold 250us
config *.stationA_*.displayString "\"i=abstract/pc\""
config *.stationB_*.displayString "\"i=abstract/pc\""
config *.borderGateway*.displayString "\"i=misc/router\""
config *.otnDevice.displayString "\"i=misc/router_vs\""
config *.stationA_MU.displayString "\"i=block/switch,green\""
config *.stationA_Protection.displayString "\"i=block/computer,red\""
config *.stationA_IT.displayString "\"i=block/plug,blue\""
config *.stationB_Protection.displayString "\"i=block/computer,red\""
config *.stationA_BusProtection.displayString "\"i=block/computer,orange\""
config *.stationB_BusProtection.displayString "\"i=block/computer,orange\""
config *.stationA_BusProtection_MU*.displayString "\"i=block/switch,yellow\""
config *.stationB_BusProtection_MU*.displayString "\"i=block/switch,yellow\""
config *.stationA_Camera*.displayString "\"i=device/camera,gray\""
config *.stationB_Camera*.displayString "\"i=device/camera,gray\""
config *.stationA_VoIP*.displayString "\"i=device/iphone,gray\""
config *.stationB_VoIP*.displayString "\"i=device/iphone,gray\""
config *.stationA_OMServer.displayString "\"i=block/server,gray\""
config *.stationB_OMServer.displayString "\"i=block/server,gray\""
config **.channel.displayString "\"ls=black,1\""

vector 0 SmartSubstationTopology.stationA_MU.udp passedUpPk:vector(count) ETV
attr interpolationmode none
attr recordingmode vector(count)
attr source packetSentToUpper
attr title "packets passed up, count"
vector 1 SmartSubstationTopology.stationA_MU.udp droppedPkWrongPort:vector(count) ETV
attr interpolationmode none
attr recordingmode vector(count)
attr source packetDropReasonIsNoPortFound(packetDropped)
attr title "packets dropped (wrong port), count"
vector 2 SmartSubstationTopology.stationA_MU.udp droppedPkBadChecksum:vector(count) ETV
attr interpolationmode none
attr recordingmode vector(count)
attr source packetDropReasonIsIncorrectlyReceived(packetDropped)
attr title "packets dropped (checksum error), count"
vector 3 SmartSubstationTopology.stationA_Protection.udp passedUpPk:vector(count) ETV
attr interpolationmode none
attr recordingmode vector(count)
attr source packetSentToUpper
attr title "packets passed up, count"
vector 4 SmartSubstationTopology.stationA_Protection.udp droppedPkWrongPort:vector(count) ETV
attr interpolationmode none
attr recordingmode vector(count)
attr source packetDropReasonIsNoPortFound(packetDropped)
attr title "packets dropped (wrong port), count"
vector 5 SmartSubstationTopology.stationA_Protection.udp droppedPkBadChecksum:vector(count) ETV
attr interpolationmode none
attr recordingmode vector(count)
attr source packetDropReasonIsIncorrectlyReceived(packetDropped)
attr title "packets dropped (checksum error), count"
vector 6 SmartSubstationTopology.stationA_IT.udp passedUpPk:vector(count) ETV
attr interpolationmode none
attr recordingmode vector(count)
attr source packetSentToUpper
attr title "packets passed up, count"
vector 7 SmartSubstationTopology.stationA_IT.udp droppedPkWrongPort:vector(count) ETV
attr interpolationmode none
attr recordingmode vector(count)
attr source packetDropReasonIsNoPortFound(packetDropped)
attr title "packets dropped (wrong port), count"
vector 8 SmartSubstationTopology.stationA_IT.udp droppedPkBadChecksum:vector(count) ETV
attr interpolationmode none
attr recordingmode vector(count)
attr source packetDropReasonIsIncorrectlyReceived(packetDropped)
attr title "packets dropped (checksum error), count"
vector 9 SmartSubstationTopology.stationA_BusProtection_MU1.udp passedUpPk:vector(count) ETV
attr interpolationmode none
attr recordingmode vector(count)
attr source packetSentToUpper
attr title "packets passed up, count"
vector 10 SmartSubstationTopology.stationA_BusProtection_MU1.udp droppedPkWrongPort:vector(count) ETV
attr interpolationmode none
attr recordingmode vector(count)
attr source packetDropReasonIsNoPortFound(packetDropped)
attr title "packets dropped (wrong port), count"
vector 11 SmartSubstationTopology.stationA_BusProtection_MU1.udp droppedPkBadChecksum:vector(count) ETV
attr interpolationmode none
attr recordingmode vector(count)
attr source packetDropReasonIsIncorrectlyReceived(packetDropped)
attr title "packets dropped (checksum error), count"
vector 12 SmartSubstationTopology.stationA_BusProtection_MU2.udp passedUpPk:vector(count) ETV
attr interpolationmode none
attr recordingmode vector(count)
attr source packetSentToUpper
attr title "packets passed up, count"
vector 13 SmartSubstationTopology.stationA_BusProtection_MU2.udp droppedPkWrongPort:vector(count) ETV
attr interpolationmode none
attr recordingmode vector(count)
attr source packetDropReasonIsNoPortFound(packetDropped)
attr title "packets dropped (wrong port), count"
vector 14 SmartSubstationTopology.stationA_BusProtection_MU2.udp droppedPkBadChecksum:vector(count) ETV
attr interpolationmode none
attr recordingmode vector(count)
attr source packetDropReasonIsIncorrectlyReceived(packetDropped)
attr title "packets dropped (checksum error), count"
vector 15 SmartSubstationTopology.stationA_BusProtection_MU3.udp passedUpPk:vector(count) ETV
attr interpolationmode none
attr recordingmode vector(count)
attr source packetSentToUpper
attr title "packets passed up, count"
vector 16 SmartSubstationTopology.stationA_BusProtection_MU3.udp droppedPkWrongPort:vector(count) ETV
attr interpolationmode none
attr recordingmode vector(count)
attr source packetDropReasonIsNoPortFound(packetDropped)
attr title "packets dropped (wrong port), count"
vector 17 SmartSubstationTopology.stationA_BusProtection_MU3.udp droppedPkBadChecksum:vector(count) ETV
attr interpolationmode none
attr recordingmode vector(count)
attr source packetDropReasonIsIncorrectlyReceived(packetDropped)
attr title "packets dropped (checksum error), count"
vector 18 SmartSubstationTopology.stationA_BusProtection.udp passedUpPk:vector(count) ETV
attr interpolationmode none
attr recordingmode vector(count)
attr source packetSentToUpper
attr title "packets passed up, count"
vector 19 SmartSubstationTopology.stationA_BusProtection.udp droppedPkWrongPort:vector(count) ETV
attr interpolationmode none
attr recordingmode vector(count)
attr source packetDropReasonIsNoPortFound(packetDropped)
attr title "packets dropped (wrong port), count"
vector 20 SmartSubstationTopology.stationA_BusProtection.udp droppedPkBadChecksum:vector(count) ETV
attr interpolationmode none
attr recordingmode vector(count)
attr source packetDropReasonIsIncorrectlyReceived(packetDropped)
attr title "packets dropped (checksum error), count"
vector 21 SmartSubstationTopology.stationA_Camera1.udp passedUpPk:vector(count) ETV
attr interpolationmode none
attr recordingmode vector(count)
attr source packetSentToUpper
attr title "packets passed up, count"
vector 22 SmartSubstationTopology.stationA_Camera1.udp droppedPkWrongPort:vector(count) ETV
attr interpolationmode none
attr recordingmode vector(count)
attr source packetDropReasonIsNoPortFound(packetDropped)
attr title "packets dropped (wrong port), count"
vector 23 SmartSubstationTopology.stationA_Camera1.udp droppedPkBadChecksum:vector(count) ETV
attr interpolationmode none
attr recordingmode vector(count)
attr source packetDropReasonIsIncorrectlyReceived(packetDropped)
attr title "packets dropped (checksum error), count"
vector 24 SmartSubstationTopology.stationA_Camera2.udp passedUpPk:vector(count) ETV
attr interpolationmode none
attr recordingmode vector(count)
attr source packetSentToUpper
attr title "packets passed up, count"
vector 25 SmartSubstationTopology.stationA_Camera2.udp droppedPkWrongPort:vector(count) ETV
attr interpolationmode none
attr recordingmode vector(count)
attr source packetDropReasonIsNoPortFound(packetDropped)
attr title "packets dropped (wrong port), count"
vector 26 SmartSubstationTopology.stationA_Camera2.udp droppedPkBadChecksum:vector(count) ETV
attr interpolationmode none
attr recordingmode vector(count)
attr source packetDropReasonIsIncorrectlyReceived(packetDropped)
attr title "packets dropped (checksum error), count"
vector 27 SmartSubstationTopology.stationA_Camera3.udp passedUpPk:vector(count) ETV
attr interpolationmode none
attr recordingmode vector(count)
attr source packetSentToUpper
attr title "packets passed up, count"
vector 28 SmartSubstationTopology.stationA_Camera3.udp droppedPkWrongPort:vector(count) ETV
attr interpolationmode none
attr recordingmode vector(count)
attr source packetDropReasonIsNoPortFound(packetDropped)
attr title "packets dropped (wrong port), count"
vector 29 SmartSubstationTopology.stationA_Camera3.udp droppedPkBadChecksum:vector(count) ETV
attr interpolationmode none
attr recordingmode vector(count)
attr source packetDropReasonIsIncorrectlyReceived(packetDropped)
attr title "packets dropped (checksum error), count"
vector 30 SmartSubstationTopology.stationA_Camera4.udp passedUpPk:vector(count) ETV
attr interpolationmode none
attr recordingmode vector(count)
attr source packetSentToUpper
attr title "packets passed up, count"
vector 31 SmartSubstationTopology.stationA_Camera4.udp droppedPkWrongPort:vector(count) ETV
attr interpolationmode none
attr recordingmode vector(count)
attr source packetDropReasonIsNoPortFound(packetDropped)
attr title "packets dropped (wrong port), count"
vector 32 SmartSubstationTopology.stationA_Camera4.udp droppedPkBadChecksum:vector(count) ETV
attr interpolationmode none
attr recordingmode vector(count)
attr source packetDropReasonIsIncorrectlyReceived(packetDropped)
attr title "packets dropped (checksum error), count"
vector 33 SmartSubstationTopology.stationA_Camera5.udp passedUpPk:vector(count) ETV
attr interpolationmode none
attr recordingmode vector(count)
attr source packetSentToUpper
attr title "packets passed up, count"
vector 34 SmartSubstationTopology.stationA_Camera5.udp droppedPkWrongPort:vector(count) ETV
attr interpolationmode none
attr recordingmode vector(count)
attr source packetDropReasonIsNoPortFound(packetDropped)
attr title "packets dropped (wrong port), count"
vector 35 SmartSubstationTopology.stationA_Camera5.udp droppedPkBadChecksum:vector(count) ETV
attr interpolationmode none
attr recordingmode vector(count)
attr source packetDropReasonIsIncorrectlyReceived(packetDropped)
attr title "packets dropped (checksum error), count"
vector 36 SmartSubstationTopology.stationA_Camera6.udp passedUpPk:vector(count) ETV
attr interpolationmode none
attr recordingmode vector(count)
attr source packetSentToUpper
attr title "packets passed up, count"
vector 37 SmartSubstationTopology.stationA_Camera6.udp droppedPkWrongPort:vector(count) ETV
attr interpolationmode none
attr recordingmode vector(count)
attr source packetDropReasonIsNoPortFound(packetDropped)
attr title "packets dropped (wrong port), count"
vector 38 SmartSubstationTopology.stationA_Camera6.udp droppedPkBadChecksum:vector(count) ETV
attr interpolationmode none
attr recordingmode vector(count)
attr source packetDropReasonIsIncorrectlyReceived(packetDropped)
attr title "packets dropped (checksum error), count"
vector 39 SmartSubstationTopology.stationA_Camera7.udp passedUpPk:vector(count) ETV
attr interpolationmode none
attr recordingmode vector(count)
attr source packetSentToUpper
attr title "packets passed up, count"
vector 40 SmartSubstationTopology.stationA_Camera7.udp droppedPkWrongPort:vector(count) ETV
attr interpolationmode none
attr recordingmode vector(count)
attr source packetDropReasonIsNoPortFound(packetDropped)
attr title "packets dropped (wrong port), count"
vector 41 SmartSubstationTopology.stationA_Camera7.udp droppedPkBadChecksum:vector(count) ETV
attr interpolationmode none
attr recordingmode vector(count)
attr source packetDropReasonIsIncorrectlyReceived(packetDropped)
attr title "packets dropped (checksum error), count"
vector 42 SmartSubstationTopology.stationA_Camera8.udp passedUpPk:vector(count) ETV
attr interpolationmode none
attr recordingmode vector(count)
attr source packetSentToUpper
attr title "packets passed up, count"
vector 43 SmartSubstationTopology.stationA_Camera8.udp droppedPkWrongPort:vector(count) ETV
attr interpolationmode none
attr recordingmode vector(count)
attr source packetDropReasonIsNoPortFound(packetDropped)
attr title "packets dropped (wrong port), count"
vector 44 SmartSubstationTopology.stationA_Camera8.udp droppedPkBadChecksum:vector(count) ETV
attr interpolationmode none
attr recordingmode vector(count)
attr source packetDropReasonIsIncorrectlyReceived(packetDropped)
attr title "packets dropped (checksum error), count"
vector 45 SmartSubstationTopology.stationA_Camera9.udp passedUpPk:vector(count) ETV
attr interpolationmode none
attr recordingmode vector(count)
attr source packetSentToUpper
attr title "packets passed up, count"
vector 46 SmartSubstationTopology.stationA_Camera9.udp droppedPkWrongPort:vector(count) ETV
attr interpolationmode none
attr recordingmode vector(count)
attr source packetDropReasonIsNoPortFound(packetDropped)
attr title "packets dropped (wrong port), count"
vector 47 SmartSubstationTopology.stationA_Camera9.udp droppedPkBadChecksum:vector(count) ETV
attr interpolationmode none
attr recordingmode vector(count)
attr source packetDropReasonIsIncorrectlyReceived(packetDropped)
attr title "packets dropped (checksum error), count"
vector 48 SmartSubstationTopology.stationA_Camera10.udp passedUpPk:vector(count) ETV
attr interpolationmode none
attr recordingmode vector(count)
attr source packetSentToUpper
attr title "packets passed up, count"
vector 49 SmartSubstationTopology.stationA_Camera10.udp droppedPkWrongPort:vector(count) ETV
attr interpolationmode none
attr recordingmode vector(count)
attr source packetDropReasonIsNoPortFound(packetDropped)
attr title "packets dropped (wrong port), count"
vector 50 SmartSubstationTopology.stationA_Camera10.udp droppedPkBadChecksum:vector(count) ETV
attr interpolationmode none
attr recordingmode vector(count)
attr source packetDropReasonIsIncorrectlyReceived(packetDropped)
attr title "packets dropped (checksum error), count"
vector 51 SmartSubstationTopology.stationA_VoIP1.udp passedUpPk:vector(count) ETV
attr interpolationmode none
attr recordingmode vector(count)
attr source packetSentToUpper
attr title "packets passed up, count"
vector 52 SmartSubstationTopology.stationA_VoIP1.udp droppedPkWrongPort:vector(count) ETV
attr interpolationmode none
attr recordingmode vector(count)
attr source packetDropReasonIsNoPortFound(packetDropped)
attr title "packets dropped (wrong port), count"
vector 53 SmartSubstationTopology.stationA_VoIP1.udp droppedPkBadChecksum:vector(count) ETV
attr interpolationmode none
attr recordingmode vector(count)
attr source packetDropReasonIsIncorrectlyReceived(packetDropped)
attr title "packets dropped (checksum error), count"
vector 54 SmartSubstationTopology.stationA_VoIP2.udp passedUpPk:vector(count) ETV
attr interpolationmode none
attr recordingmode vector(count)
attr source packetSentToUpper
attr title "packets passed up, count"
vector 55 SmartSubstationTopology.stationA_VoIP2.udp droppedPkWrongPort:vector(count) ETV
attr interpolationmode none
attr recordingmode vector(count)
attr source packetDropReasonIsNoPortFound(packetDropped)
attr title "packets dropped (wrong port), count"
vector 56 SmartSubstationTopology.stationA_VoIP2.udp droppedPkBadChecksum:vector(count) ETV
attr interpolationmode none
attr recordingmode vector(count)
attr source packetDropReasonIsIncorrectlyReceived(packetDropped)
attr title "packets dropped (checksum error), count"
vector 57 SmartSubstationTopology.stationA_OMServer.udp passedUpPk:vector(count) ETV
attr interpolationmode none
attr recordingmode vector(count)
attr source packetSentToUpper
attr title "packets passed up, count"
vector 58 SmartSubstationTopology.stationA_OMServer.udp droppedPkWrongPort:vector(count) ETV
attr interpolationmode none
attr recordingmode vector(count)
attr source packetDropReasonIsNoPortFound(packetDropped)
attr title "packets dropped (wrong port), count"
vector 59 SmartSubstationTopology.stationA_OMServer.udp droppedPkBadChecksum:vector(count) ETV
attr interpolationmode none
attr recordingmode vector(count)
attr source packetDropReasonIsIncorrectlyReceived(packetDropped)
attr title "packets dropped (checksum error), count"
vector 60 SmartSubstationTopology.stationB_MU.udp passedUpPk:vector(count) ETV
attr interpolationmode none
attr recordingmode vector(count)
attr source packetSentToUpper
attr title "packets passed up, count"
vector 61 SmartSubstationTopology.stationB_MU.udp droppedPkWrongPort:vector(count) ETV
attr interpolationmode none
attr recordingmode vector(count)
attr source packetDropReasonIsNoPortFound(packetDropped)
attr title "packets dropped (wrong port), count"
vector 62 SmartSubstationTopology.stationB_MU.udp droppedPkBadChecksum:vector(count) ETV
attr interpolationmode none
attr recordingmode vector(count)
attr source packetDropReasonIsIncorrectlyReceived(packetDropped)
attr title "packets dropped (checksum error), count"
vector 63 SmartSubstationTopology.stationB_Protection.udp passedUpPk:vector(count) ETV
attr interpolationmode none
attr recordingmode vector(count)
attr source packetSentToUpper
attr title "packets passed up, count"
vector 64 SmartSubstationTopology.stationB_Protection.udp droppedPkWrongPort:vector(count) ETV
attr interpolationmode none
attr recordingmode vector(count)
attr source packetDropReasonIsNoPortFound(packetDropped)
attr title "packets dropped (wrong port), count"
vector 65 SmartSubstationTopology.stationB_Protection.udp droppedPkBadChecksum:vector(count) ETV
attr interpolationmode none
attr recordingmode vector(count)
attr source packetDropReasonIsIncorrectlyReceived(packetDropped)
attr title "packets dropped (checksum error), count"
vector 66 SmartSubstationTopology.stationB_IT.udp passedUpPk:vector(count) ETV
attr interpolationmode none
attr recordingmode vector(count)
attr source packetSentToUpper
attr title "packets passed up, count"
vector 67 SmartSubstationTopology.stationB_IT.udp droppedPkWrongPort:vector(count) ETV
attr interpolationmode none
attr recordingmode vector(count)
attr source packetDropReasonIsNoPortFound(packetDropped)
attr title "packets dropped (wrong port), count"
vector 68 SmartSubstationTopology.stationB_IT.udp droppedPkBadChecksum:vector(count) ETV
attr interpolationmode none
attr recordingmode vector(count)
attr source packetDropReasonIsIncorrectlyReceived(packetDropped)
attr title "packets dropped (checksum error), count"
vector 69 SmartSubstationTopology.stationB_BusProtection_MU1.udp passedUpPk:vector(count) ETV
attr interpolationmode none
attr recordingmode vector(count)
attr source packetSentToUpper
attr title "packets passed up, count"
vector 70 SmartSubstationTopology.stationB_BusProtection_MU1.udp droppedPkWrongPort:vector(count) ETV
attr interpolationmode none
attr recordingmode vector(count)
attr source packetDropReasonIsNoPortFound(packetDropped)
attr title "packets dropped (wrong port), count"
vector 71 SmartSubstationTopology.stationB_BusProtection_MU1.udp droppedPkBadChecksum:vector(count) ETV
attr interpolationmode none
attr recordingmode vector(count)
attr source packetDropReasonIsIncorrectlyReceived(packetDropped)
attr title "packets dropped (checksum error), count"
vector 72 SmartSubstationTopology.stationB_BusProtection_MU2.udp passedUpPk:vector(count) ETV
attr interpolationmode none
attr recordingmode vector(count)
attr source packetSentToUpper
attr title "packets passed up, count"
vector 73 SmartSubstationTopology.stationB_BusProtection_MU2.udp droppedPkWrongPort:vector(count) ETV
attr interpolationmode none
attr recordingmode vector(count)
attr source packetDropReasonIsNoPortFound(packetDropped)
attr title "packets dropped (wrong port), count"
vector 74 SmartSubstationTopology.stationB_BusProtection_MU2.udp droppedPkBadChecksum:vector(count) ETV
attr interpolationmode none
attr recordingmode vector(count)
attr source packetDropReasonIsIncorrectlyReceived(packetDropped)
attr title "packets dropped (checksum error), count"
vector 75 SmartSubstationTopology.stationB_BusProtection_MU3.udp passedUpPk:vector(count) ETV
attr interpolationmode none
attr recordingmode vector(count)
attr source packetSentToUpper
attr title "packets passed up, count"
vector 76 SmartSubstationTopology.stationB_BusProtection_MU3.udp droppedPkWrongPort:vector(count) ETV
attr interpolationmode none
attr recordingmode vector(count)
attr source packetDropReasonIsNoPortFound(packetDropped)
attr title "packets dropped (wrong port), count"
vector 77 SmartSubstationTopology.stationB_BusProtection_MU3.udp droppedPkBadChecksum:vector(count) ETV
attr interpolationmode none
attr recordingmode vector(count)
attr source packetDropReasonIsIncorrectlyReceived(packetDropped)
attr title "packets dropped (checksum error), count"
vector 78 SmartSubstationTopology.stationB_BusProtection.udp passedUpPk:vector(count) ETV
attr interpolationmode none
attr recordingmode vector(count)
attr source packetSentToUpper
attr title "packets passed up, count"
vector 79 SmartSubstationTopology.stationB_BusProtection.udp droppedPkWrongPort:vector(count) ETV
attr interpolationmode none
attr recordingmode vector(count)
attr source packetDropReasonIsNoPortFound(packetDropped)
attr title "packets dropped (wrong port), count"
vector 80 SmartSubstationTopology.stationB_BusProtection.udp droppedPkBadChecksum:vector(count) ETV
attr interpolationmode none
attr recordingmode vector(count)
attr source packetDropReasonIsIncorrectlyReceived(packetDropped)
attr title "packets dropped (checksum error), count"
vector 81 SmartSubstationTopology.stationB_Camera1.udp passedUpPk:vector(count) ETV
attr interpolationmode none
attr recordingmode vector(count)
attr source packetSentToUpper
attr title "packets passed up, count"
vector 82 SmartSubstationTopology.stationB_Camera1.udp droppedPkWrongPort:vector(count) ETV
attr interpolationmode none
attr recordingmode vector(count)
attr source packetDropReasonIsNoPortFound(packetDropped)
attr title "packets dropped (wrong port), count"
vector 83 SmartSubstationTopology.stationB_Camera1.udp droppedPkBadChecksum:vector(count) ETV
attr interpolationmode none
attr recordingmode vector(count)
attr source packetDropReasonIsIncorrectlyReceived(packetDropped)
attr title "packets dropped (checksum error), count"
vector 84 SmartSubstationTopology.stationB_Camera2.udp passedUpPk:vector(count) ETV
attr interpolationmode none
attr recordingmode vector(count)
attr source packetSentToUpper
attr title "packets passed up, count"
vector 85 SmartSubstationTopology.stationB_Camera2.udp droppedPkWrongPort:vector(count) ETV
attr interpolationmode none
attr recordingmode vector(count)
attr source packetDropReasonIsNoPortFound(packetDropped)
attr title "packets dropped (wrong port), count"
vector 86 SmartSubstationTopology.stationB_Camera2.udp droppedPkBadChecksum:vector(count) ETV
attr interpolationmode none
attr recordingmode vector(count)
attr source packetDropReasonIsIncorrectlyReceived(packetDropped)
attr title "packets dropped (checksum error), count"
vector 87 SmartSubstationTopology.stationB_Camera3.udp passedUpPk:vector(count) ETV
attr interpolationmode none
attr recordingmode vector(count)
attr source packetSentToUpper
attr title "packets passed up, count"
vector 88 SmartSubstationTopology.stationB_Camera3.udp droppedPkWrongPort:vector(count) ETV
attr interpolationmode none
attr recordingmode vector(count)
attr source packetDropReasonIsNoPortFound(packetDropped)
attr title "packets dropped (wrong port), count"
vector 89 SmartSubstationTopology.stationB_Camera3.udp droppedPkBadChecksum:vector(count) ETV
attr interpolationmode none
attr recordingmode vector(count)
attr source packetDropReasonIsIncorrectlyReceived(packetDropped)
attr title "packets dropped (checksum error), count"
vector 90 SmartSubstationTopology.stationB_Camera4.udp passedUpPk:vector(count) ETV
attr interpolationmode none
attr recordingmode vector(count)
attr source packetSentToUpper
attr title "packets passed up, count"
vector 91 SmartSubstationTopology.stationB_Camera4.udp droppedPkWrongPort:vector(count) ETV
attr interpolationmode none
attr recordingmode vector(count)
attr source packetDropReasonIsNoPortFound(packetDropped)
attr title "packets dropped (wrong port), count"
vector 92 SmartSubstationTopology.stationB_Camera4.udp droppedPkBadChecksum:vector(count) ETV
attr interpolationmode none
attr recordingmode vector(count)
attr source packetDropReasonIsIncorrectlyReceived(packetDropped)
attr title "packets dropped (checksum error), count"
vector 93 SmartSubstationTopology.stationB_Camera5.udp passedUpPk:vector(count) ETV
attr interpolationmode none
attr recordingmode vector(count)
attr source packetSentToUpper
attr title "packets passed up, count"
vector 94 SmartSubstationTopology.stationB_Camera5.udp droppedPkWrongPort:vector(count) ETV
attr interpolationmode none
attr recordingmode vector(count)
attr source packetDropReasonIsNoPortFound(packetDropped)
attr title "packets dropped (wrong port), count"
vector 95 SmartSubstationTopology.stationB_Camera5.udp droppedPkBadChecksum:vector(count) ETV
attr interpolationmode none
attr recordingmode vector(count)
attr source packetDropReasonIsIncorrectlyReceived(packetDropped)
attr title "packets dropped (checksum error), count"
vector 96 SmartSubstationTopology.stationB_Camera6.udp passedUpPk:vector(count) ETV
attr interpolationmode none
attr recordingmode vector(count)
attr source packetSentToUpper
attr title "packets passed up, count"
vector 97 SmartSubstationTopology.stationB_Camera6.udp droppedPkWrongPort:vector(count) ETV
attr interpolationmode none
attr recordingmode vector(count)
attr source packetDropReasonIsNoPortFound(packetDropped)
attr title "packets dropped (wrong port), count"
vector 98 SmartSubstationTopology.stationB_Camera6.udp droppedPkBadChecksum:vector(count) ETV
attr interpolationmode none
attr recordingmode vector(count)
attr source packetDropReasonIsIncorrectlyReceived(packetDropped)
attr title "packets dropped (checksum error), count"
vector 99 SmartSubstationTopology.stationB_Camera7.udp passedUpPk:vector(count) ETV
attr interpolationmode none
attr recordingmode vector(count)
attr source packetSentToUpper
attr title "packets passed up, count"
vector 100 SmartSubstationTopology.stationB_Camera7.udp droppedPkWrongPort:vector(count) ETV
attr interpolationmode none
attr recordingmode vector(count)
attr source packetDropReasonIsNoPortFound(packetDropped)
attr title "packets dropped (wrong port), count"
vector 101 SmartSubstationTopology.stationB_Camera7.udp droppedPkBadChecksum:vector(count) ETV
attr interpolationmode none
attr recordingmode vector(count)
attr source packetDropReasonIsIncorrectlyReceived(packetDropped)
attr title "packets dropped (checksum error), count"
vector 102 SmartSubstationTopology.stationB_Camera8.udp passedUpPk:vector(count) ETV
attr interpolationmode none
attr recordingmode vector(count)
attr source packetSentToUpper
attr title "packets passed up, count"
vector 103 SmartSubstationTopology.stationB_Camera8.udp droppedPkWrongPort:vector(count) ETV
attr interpolationmode none
attr recordingmode vector(count)
attr source packetDropReasonIsNoPortFound(packetDropped)
attr title "packets dropped (wrong port), count"
vector 104 SmartSubstationTopology.stationB_Camera8.udp droppedPkBadChecksum:vector(count) ETV
attr interpolationmode none
attr recordingmode vector(count)
attr source packetDropReasonIsIncorrectlyReceived(packetDropped)
attr title "packets dropped (checksum error), count"
vector 105 SmartSubstationTopology.stationB_Camera9.udp passedUpPk:vector(count) ETV
attr interpolationmode none
attr recordingmode vector(count)
attr source packetSentToUpper
attr title "packets passed up, count"
vector 106 SmartSubstationTopology.stationB_Camera9.udp droppedPkWrongPort:vector(count) ETV
attr interpolationmode none
attr recordingmode vector(count)
attr source packetDropReasonIsNoPortFound(packetDropped)
attr title "packets dropped (wrong port), count"
vector 107 SmartSubstationTopology.stationB_Camera9.udp droppedPkBadChecksum:vector(count) ETV
attr interpolationmode none
attr recordingmode vector(count)
attr source packetDropReasonIsIncorrectlyReceived(packetDropped)
attr title "packets dropped (checksum error), count"
vector 108 SmartSubstationTopology.stationB_Camera10.udp passedUpPk:vector(count) ETV
attr interpolationmode none
attr recordingmode vector(count)
attr source packetSentToUpper
attr title "packets passed up, count"
vector 109 SmartSubstationTopology.stationB_Camera10.udp droppedPkWrongPort:vector(count) ETV
attr interpolationmode none
attr recordingmode vector(count)
attr source packetDropReasonIsNoPortFound(packetDropped)
attr title "packets dropped (wrong port), count"
vector 110 SmartSubstationTopology.stationB_Camera10.udp droppedPkBadChecksum:vector(count) ETV
attr interpolationmode none
attr recordingmode vector(count)
attr source packetDropReasonIsIncorrectlyReceived(packetDropped)
attr title "packets dropped (checksum error), count"
vector 111 SmartSubstationTopology.stationB_VoIP1.udp passedUpPk:vector(count) ETV
attr interpolationmode none
attr recordingmode vector(count)
attr source packetSentToUpper
attr title "packets passed up, count"
vector 112 SmartSubstationTopology.stationB_VoIP1.udp droppedPkWrongPort:vector(count) ETV
attr interpolationmode none
attr recordingmode vector(count)
attr source packetDropReasonIsNoPortFound(packetDropped)
attr title "packets dropped (wrong port), count"
vector 113 SmartSubstationTopology.stationB_VoIP1.udp droppedPkBadChecksum:vector(count) ETV
attr interpolationmode none
attr recordingmode vector(count)
attr source packetDropReasonIsIncorrectlyReceived(packetDropped)
attr title "packets dropped (checksum error), count"
vector 114 SmartSubstationTopology.stationB_VoIP2.udp passedUpPk:vector(count) ETV
attr interpolationmode none
attr recordingmode vector(count)
attr source packetSentToUpper
attr title "packets passed up, count"
vector 115 SmartSubstationTopology.stationB_VoIP2.udp droppedPkWrongPort:vector(count) ETV
attr interpolationmode none
attr recordingmode vector(count)
attr source packetDropReasonIsNoPortFound(packetDropped)
attr title "packets dropped (wrong port), count"
vector 116 SmartSubstationTopology.stationB_VoIP2.udp droppedPkBadChecksum:vector(count) ETV
attr interpolationmode none
attr recordingmode vector(count)
attr source packetDropReasonIsIncorrectlyReceived(packetDropped)
attr title "packets dropped (checksum error), count"
vector 117 SmartSubstationTopology.stationB_OMServer.udp passedUpPk:vector(count) ETV
attr interpolationmode none
attr recordingmode vector(count)
attr source packetSentToUpper
attr title "packets passed up, count"
vector 118 SmartSubstationTopology.stationB_OMServer.udp droppedPkWrongPort:vector(count) ETV
attr interpolationmode none
attr recordingmode vector(count)
attr source packetDropReasonIsNoPortFound(packetDropped)
attr title "packets dropped (wrong port), count"
vector 119 SmartSubstationTopology.stationB_OMServer.udp droppedPkBadChecksum:vector(count) ETV
attr interpolationmode none
attr recordingmode vector(count)
attr source packetDropReasonIsIncorrectlyReceived(packetDropped)
attr title "packets dropped (checksum error), count"
vector 120 SmartSubstationTopology.borderGateway1.udp passedUpPk:vector(count) ETV
attr interpolationmode none
attr recordingmode vector(count)
attr source packetSentToUpper
attr title "packets passed up, count"
vector 121 SmartSubstationTopology.borderGateway1.udp droppedPkWrongPort:vector(count) ETV
attr interpolationmode none
attr recordingmode vector(count)
attr source packetDropReasonIsNoPortFound(packetDropped)
attr title "packets dropped (wrong port), count"
vector 122 SmartSubstationTopology.borderGateway1.udp droppedPkBadChecksum:vector(count) ETV
attr interpolationmode none
attr recordingmode vector(count)
attr source packetDropReasonIsIncorrectlyReceived(packetDropped)
attr title "packets dropped (checksum error), count"
vector 123 SmartSubstationTopology.borderGateway2.udp passedUpPk:vector(count) ETV
attr interpolationmode none
attr recordingmode vector(count)
attr source packetSentToUpper
attr title "packets passed up, count"
vector 124 SmartSubstationTopology.borderGateway2.udp droppedPkWrongPort:vector(count) ETV
attr interpolationmode none
attr recordingmode vector(count)
attr source packetDropReasonIsNoPortFound(packetDropped)
attr title "packets dropped (wrong port), count"
vector 125 SmartSubstationTopology.borderGateway2.udp droppedPkBadChecksum:vector(count) ETV
attr interpolationmode none
attr recordingmode vector(count)
attr source packetDropReasonIsIncorrectlyReceived(packetDropped)
attr title "packets dropped (checksum error), count"
vector 126 SmartSubstationTopology.otnDevice.udp passedUpPk:vector(count) ETV
attr interpolationmode none
attr recordingmode vector(count)
attr source packetSentToUpper
attr title "packets passed up, count"
vector 127 SmartSubstationTopology.otnDevice.udp droppedPkWrongPort:vector(count) ETV
attr interpolationmode none
attr recordingmode vector(count)
attr source packetDropReasonIsNoPortFound(packetDropped)
attr title "packets dropped (wrong port), count"
vector 128 SmartSubstationTopology.otnDevice.udp droppedPkBadChecksum:vector(count) ETV
attr interpolationmode none
attr recordingmode vector(count)
attr source packetDropReasonIsIncorrectlyReceived(packetDropped)
attr title "packets dropped (checksum error), count"
vector 129 SmartSubstationTopology.stationA_TSN.ieee8021q.qTagHeaderChecker droppedDataRate:vector ETV
attr interpolationmode linear
attr recordingmode vector
attr source throughput(packetDropped)
attr title "dropped data rate"
attr unit bps
vector 130 SmartSubstationTopology.stationA_TSN.ieee8021r.rTagHeaderChecker droppedDataRate:vector ETV
attr interpolationmode linear
attr recordingmode vector
attr source throughput(packetDropped)
attr title "dropped data rate"
attr unit bps
vector 131 SmartSubstationTopology.stationA_TSN.eth[0].queue outgoingDataRate:vector ETV
attr interpolationmode linear
attr recordingmode vector
attr source throughput(packetPulled)
attr title "outgoing datarate"
attr unit bps
vector 132 SmartSubstationTopology.stationA_TSN.eth[0].queue incomingDataRate:vector ETV
attr interpolationmode linear
attr recordingmode vector
attr source throughput(packetPushStarted)
attr title "incoming datarate"
attr unit bps
vector 133 SmartSubstationTopology.stationA_TSN.eth[1].queue outgoingDataRate:vector ETV
attr interpolationmode linear
attr recordingmode vector
attr source throughput(packetPulled)
attr title "outgoing datarate"
attr unit bps
vector 134 SmartSubstationTopology.stationA_TSN.eth[1].queue incomingDataRate:vector ETV
attr interpolationmode linear
attr recordingmode vector
attr source throughput(packetPushStarted)
attr title "incoming datarate"
attr unit bps
vector 135 SmartSubstationTopology.stationA_TSN.eth[2].queue outgoingDataRate:vector ETV
attr interpolationmode linear
attr recordingmode vector
attr source throughput(packetPulled)
attr title "outgoing datarate"
attr unit bps
vector 136 SmartSubstationTopology.stationA_TSN.eth[2].queue incomingDataRate:vector ETV
attr interpolationmode linear
attr recordingmode vector
attr source throughput(packetPushStarted)
attr title "incoming datarate"
attr unit bps
vector 137 SmartSubstationTopology.stationA_TSN.eth[3].queue outgoingDataRate:vector ETV
attr interpolationmode linear
attr recordingmode vector
attr source throughput(packetPulled)
attr title "outgoing datarate"
attr unit bps
vector 138 SmartSubstationTopology.stationA_TSN.eth[3].queue incomingDataRate:vector ETV
attr interpolationmode linear
attr recordingmode vector
attr source throughput(packetPushStarted)
attr title "incoming datarate"
attr unit bps
vector 139 SmartSubstationTopology.stationA_TSN.eth[4].queue outgoingDataRate:vector ETV
attr interpolationmode linear
attr recordingmode vector
attr source throughput(packetPulled)
attr title "outgoing datarate"
attr unit bps
vector 140 SmartSubstationTopology.stationA_TSN.eth[4].queue incomingDataRate:vector ETV
attr interpolationmode linear
attr recordingmode vector
attr source throughput(packetPushStarted)
attr title "incoming datarate"
attr unit bps
vector 141 SmartSubstationTopology.stationA_TSN.eth[5].queue outgoingDataRate:vector ETV
attr interpolationmode linear
attr recordingmode vector
attr source throughput(packetPulled)
attr title "outgoing datarate"
attr unit bps
vector 142 SmartSubstationTopology.stationA_TSN.eth[5].queue incomingDataRate:vector ETV
attr interpolationmode linear
attr recordingmode vector
attr source throughput(packetPushStarted)
attr title "incoming datarate"
attr unit bps
vector 143 SmartSubstationTopology.stationA_TSN.eth[6].queue outgoingDataRate:vector ETV
attr interpolationmode linear
attr recordingmode vector
attr source throughput(packetPulled)
attr title "outgoing datarate"
attr unit bps
vector 144 SmartSubstationTopology.stationA_TSN.eth[6].queue incomingDataRate:vector ETV
attr interpolationmode linear
attr recordingmode vector
attr source throughput(packetPushStarted)
attr title "incoming datarate"
attr unit bps
vector 145 SmartSubstationTopology.stationA_TSN.eth[7].queue outgoingDataRate:vector ETV
attr interpolationmode linear
attr recordingmode vector
attr source throughput(packetPulled)
attr title "outgoing datarate"
attr unit bps
vector 146 SmartSubstationTopology.stationA_TSN.eth[7].queue incomingDataRate:vector ETV
attr interpolationmode linear
attr recordingmode vector
attr source throughput(packetPushStarted)
attr title "incoming datarate"
attr unit bps
vector 147 SmartSubstationTopology.stationA_TSN.eth[8].queue outgoingDataRate:vector ETV
attr interpolationmode linear
attr recordingmode vector
attr source throughput(packetPulled)
attr title "outgoing datarate"
attr unit bps
vector 148 SmartSubstationTopology.stationA_TSN.eth[8].queue incomingDataRate:vector ETV
attr interpolationmode linear
attr recordingmode vector
attr source throughput(packetPushStarted)
attr title "incoming datarate"
attr unit bps
vector 149 SmartSubstationTopology.stationA_TSN.eth[9].queue outgoingDataRate:vector ETV
attr interpolationmode linear
attr recordingmode vector
attr source throughput(packetPulled)
attr title "outgoing datarate"
attr unit bps
vector 150 SmartSubstationTopology.stationA_TSN.eth[9].queue incomingDataRate:vector ETV
attr interpolationmode linear
attr recordingmode vector
attr source throughput(packetPushStarted)
attr title "incoming datarate"
attr unit bps
vector 151 SmartSubstationTopology.stationA_TSN.eth[10].queue outgoingDataRate:vector ETV
attr interpolationmode linear
attr recordingmode vector
attr source throughput(packetPulled)
attr title "outgoing datarate"
attr unit bps
vector 152 SmartSubstationTopology.stationA_TSN.eth[10].queue incomingDataRate:vector ETV
attr interpolationmode linear
attr recordingmode vector
attr source throughput(packetPushStarted)
attr title "incoming datarate"
attr unit bps
vector 153 SmartSubstationTopology.stationA_TSN.eth[11].queue outgoingDataRate:vector ETV
attr interpolationmode linear
attr recordingmode vector
attr source throughput(packetPulled)
attr title "outgoing datarate"
attr unit bps
vector 154 SmartSubstationTopology.stationA_TSN.eth[11].queue incomingDataRate:vector ETV
attr interpolationmode linear
attr recordingmode vector
attr source throughput(packetPushStarted)
attr title "incoming datarate"
attr unit bps
vector 155 SmartSubstationTopology.stationA_TSN.eth[12].queue outgoingDataRate:vector ETV
attr interpolationmode linear
attr recordingmode vector
attr source throughput(packetPulled)
attr title "outgoing datarate"
attr unit bps
vector 156 SmartSubstationTopology.stationA_TSN.eth[12].queue incomingDataRate:vector ETV
attr interpolationmode linear
attr recordingmode vector
attr source throughput(packetPushStarted)
attr title "incoming datarate"
attr unit bps
vector 157 SmartSubstationTopology.stationA_TSN.eth[13].queue outgoingDataRate:vector ETV
attr interpolationmode linear
attr recordingmode vector
attr source throughput(packetPulled)
attr title "outgoing datarate"
attr unit bps
vector 158 SmartSubstationTopology.stationA_TSN.eth[13].queue incomingDataRate:vector ETV
attr interpolationmode linear
attr recordingmode vector
attr source throughput(packetPushStarted)
attr title "incoming datarate"
attr unit bps
vector 159 SmartSubstationTopology.stationA_TSN.eth[14].queue outgoingDataRate:vector ETV
attr interpolationmode linear
attr recordingmode vector
attr source throughput(packetPulled)
attr title "outgoing datarate"
attr unit bps
vector 160 SmartSubstationTopology.stationA_TSN.eth[14].queue incomingDataRate:vector ETV
attr interpolationmode linear
attr recordingmode vector
attr source throughput(packetPushStarted)
attr title "incoming datarate"
attr unit bps
vector 161 SmartSubstationTopology.stationA_TSN.eth[15].queue outgoingDataRate:vector ETV
attr interpolationmode linear
attr recordingmode vector
attr source throughput(packetPulled)
attr title "outgoing datarate"
attr unit bps
vector 162 SmartSubstationTopology.stationA_TSN.eth[15].queue incomingDataRate:vector ETV
attr interpolationmode linear
attr recordingmode vector
attr source throughput(packetPushStarted)
attr title "incoming datarate"
attr unit bps
vector 163 SmartSubstationTopology.stationA_TSN.eth[16].queue outgoingDataRate:vector ETV
attr interpolationmode linear
attr recordingmode vector
attr source throughput(packetPulled)
attr title "outgoing datarate"
attr unit bps
vector 164 SmartSubstationTopology.stationA_TSN.eth[16].queue incomingDataRate:vector ETV
attr interpolationmode linear
attr recordingmode vector
attr source throughput(packetPushStarted)
attr title "incoming datarate"
attr unit bps
vector 165 SmartSubstationTopology.stationA_TSN.eth[17].queue outgoingDataRate:vector ETV
attr interpolationmode linear
attr recordingmode vector
attr source throughput(packetPulled)
attr title "outgoing datarate"
attr unit bps
vector 166 SmartSubstationTopology.stationA_TSN.eth[17].queue incomingDataRate:vector ETV
attr interpolationmode linear
attr recordingmode vector
attr source throughput(packetPushStarted)
attr title "incoming datarate"
attr unit bps
vector 167 SmartSubstationTopology.stationA_TSN.eth[18].queue outgoingDataRate:vector ETV
attr interpolationmode linear
attr recordingmode vector
attr source throughput(packetPulled)
attr title "outgoing datarate"
attr unit bps
vector 168 SmartSubstationTopology.stationA_TSN.eth[18].queue incomingDataRate:vector ETV
attr interpolationmode linear
attr recordingmode vector
attr source throughput(packetPushStarted)
attr title "incoming datarate"
attr unit bps
vector 169 SmartSubstationTopology.stationA_TSN.eth[19].queue outgoingDataRate:vector ETV
attr interpolationmode linear
attr recordingmode vector
attr source throughput(packetPulled)
attr title "outgoing datarate"
attr unit bps
vector 170 SmartSubstationTopology.stationA_TSN.eth[19].queue incomingDataRate:vector ETV
attr interpolationmode linear
attr recordingmode vector
attr source throughput(packetPushStarted)
attr title "incoming datarate"
attr unit bps
vector 171 SmartSubstationTopology.stationA_TSN.eth[20].queue outgoingDataRate:vector ETV
attr interpolationmode linear
attr recordingmode vector
attr source throughput(packetPulled)
attr title "outgoing datarate"
attr unit bps
vector 172 SmartSubstationTopology.stationA_TSN.eth[20].queue incomingDataRate:vector ETV
attr interpolationmode linear
attr recordingmode vector
attr source throughput(packetPushStarted)
attr title "incoming datarate"
attr unit bps
vector 173 SmartSubstationTopology.stationA_MU.eth[0].queue outgoingDataRate:vector ETV
attr interpolationmode linear
attr recordingmode vector
attr source throughput(packetPulled)
attr title "outgoing datarate"
attr unit bps
vector 174 SmartSubstationTopology.stationA_MU.eth[0].queue incomingDataRate:vector ETV
attr interpolationmode linear
attr recordingmode vector
attr source throughput(packetPushStarted)
attr title "incoming datarate"
attr unit bps
vector 175 SmartSubstationTopology.stationA_Protection.eth[0].queue outgoingDataRate:vector ETV
attr interpolationmode linear
attr recordingmode vector
attr source throughput(packetPulled)
attr title "outgoing datarate"
attr unit bps
vector 176 SmartSubstationTopology.stationA_Protection.eth[0].queue incomingDataRate:vector ETV
attr interpolationmode linear
attr recordingmode vector
attr source throughput(packetPushStarted)
attr title "incoming datarate"
attr unit bps
vector 177 SmartSubstationTopology.stationA_Protection.app[0] throughput:vector ETV
attr recordingmode vector
attr source throughput(packetReceived)
attr title throughput
attr unit bps
vector 178 SmartSubstationTopology.stationA_IT.eth[0].queue outgoingDataRate:vector ETV
attr interpolationmode linear
attr recordingmode vector
attr source throughput(packetPulled)
attr title "outgoing datarate"
attr unit bps
vector 179 SmartSubstationTopology.stationA_IT.eth[0].queue incomingDataRate:vector ETV
attr interpolationmode linear
attr recordingmode vector
attr source throughput(packetPushStarted)
attr title "incoming datarate"
attr unit bps
vector 180 SmartSubstationTopology.stationA_BusProtection_MU1.eth[0].queue outgoingDataRate:vector ETV
attr interpolationmode linear
attr recordingmode vector
attr source throughput(packetPulled)
attr title "outgoing datarate"
attr unit bps
vector 181 SmartSubstationTopology.stationA_BusProtection_MU1.eth[0].queue incomingDataRate:vector ETV
attr interpolationmode linear
attr recordingmode vector
attr source throughput(packetPushStarted)
attr title "incoming datarate"
attr unit bps
vector 182 SmartSubstationTopology.stationA_BusProtection_MU1.app[0] throughput:vector ETV
attr recordingmode vector
attr source throughput(packetReceived)
attr title throughput
attr unit bps
vector 183 SmartSubstationTopology.stationA_BusProtection_MU2.eth[0].queue outgoingDataRate:vector ETV
attr interpolationmode linear
attr recordingmode vector
attr source throughput(packetPulled)
attr title "outgoing datarate"
attr unit bps
vector 184 SmartSubstationTopology.stationA_BusProtection_MU2.eth[0].queue incomingDataRate:vector ETV
attr interpolationmode linear
attr recordingmode vector
attr source throughput(packetPushStarted)
attr title "incoming datarate"
attr unit bps
vector 185 SmartSubstationTopology.stationA_BusProtection_MU2.app[0] throughput:vector ETV
attr recordingmode vector
attr source throughput(packetReceived)
attr title throughput
attr unit bps
vector 186 SmartSubstationTopology.stationA_BusProtection_MU3.eth[0].queue outgoingDataRate:vector ETV
attr interpolationmode linear
attr recordingmode vector
attr source throughput(packetPulled)
attr title "outgoing datarate"
attr unit bps
vector 187 SmartSubstationTopology.stationA_BusProtection_MU3.eth[0].queue incomingDataRate:vector ETV
attr interpolationmode linear
attr recordingmode vector
attr source throughput(packetPushStarted)
attr title "incoming datarate"
attr unit bps
vector 188 SmartSubstationTopology.stationA_BusProtection_MU3.app[0] throughput:vector ETV
attr recordingmode vector
attr source throughput(packetReceived)
attr title throughput
attr unit bps
vector 189 SmartSubstationTopology.stationA_BusProtection.eth[0].queue outgoingDataRate:vector ETV
attr interpolationmode linear
attr recordingmode vector
attr source throughput(packetPulled)
attr title "outgoing datarate"
attr unit bps
vector 190 SmartSubstationTopology.stationA_BusProtection.eth[0].queue incomingDataRate:vector ETV
attr interpolationmode linear
attr recordingmode vector
attr source throughput(packetPushStarted)
attr title "incoming datarate"
attr unit bps
vector 191 SmartSubstationTopology.stationA_BusProtection.app[0] throughput:vector ETV
attr recordingmode vector
attr source throughput(packetReceived)
attr title throughput
attr unit bps
vector 192 SmartSubstationTopology.stationA_Camera1.eth[0].queue outgoingDataRate:vector ETV
attr interpolationmode linear
attr recordingmode vector
attr source throughput(packetPulled)
attr title "outgoing datarate"
attr unit bps
vector 193 SmartSubstationTopology.stationA_Camera1.eth[0].queue incomingDataRate:vector ETV
attr interpolationmode linear
attr recordingmode vector
attr source throughput(packetPushStarted)
attr title "incoming datarate"
attr unit bps
vector 194 SmartSubstationTopology.stationA_Camera1.app[0] throughput:vector ETV
attr recordingmode vector
attr source throughput(packetReceived)
attr title throughput
attr unit bps
vector 195 SmartSubstationTopology.stationA_Camera2.eth[0].queue outgoingDataRate:vector ETV
attr interpolationmode linear
attr recordingmode vector
attr source throughput(packetPulled)
attr title "outgoing datarate"
attr unit bps
vector 196 SmartSubstationTopology.stationA_Camera2.eth[0].queue incomingDataRate:vector ETV
attr interpolationmode linear
attr recordingmode vector
attr source throughput(packetPushStarted)
attr title "incoming datarate"
attr unit bps
vector 197 SmartSubstationTopology.stationA_Camera2.app[0] throughput:vector ETV
attr recordingmode vector
attr source throughput(packetReceived)
attr title throughput
attr unit bps
vector 198 SmartSubstationTopology.stationA_Camera3.eth[0].queue outgoingDataRate:vector ETV
attr interpolationmode linear
attr recordingmode vector
attr source throughput(packetPulled)
attr title "outgoing datarate"
attr unit bps
vector 199 SmartSubstationTopology.stationA_Camera3.eth[0].queue incomingDataRate:vector ETV
attr interpolationmode linear
attr recordingmode vector
attr source throughput(packetPushStarted)
attr title "incoming datarate"
attr unit bps
vector 200 SmartSubstationTopology.stationA_Camera3.app[0] throughput:vector ETV
attr recordingmode vector
attr source throughput(packetReceived)
attr title throughput
attr unit bps
vector 201 SmartSubstationTopology.stationA_Camera4.eth[0].queue outgoingDataRate:vector ETV
attr interpolationmode linear
attr recordingmode vector
attr source throughput(packetPulled)
attr title "outgoing datarate"
attr unit bps
vector 202 SmartSubstationTopology.stationA_Camera4.eth[0].queue incomingDataRate:vector ETV
attr interpolationmode linear
attr recordingmode vector
attr source throughput(packetPushStarted)
attr title "incoming datarate"
attr unit bps
vector 203 SmartSubstationTopology.stationA_Camera4.app[0] throughput:vector ETV
attr recordingmode vector
attr source throughput(packetReceived)
attr title throughput
attr unit bps
vector 204 SmartSubstationTopology.stationA_Camera5.eth[0].queue outgoingDataRate:vector ETV
attr interpolationmode linear
attr recordingmode vector
attr source throughput(packetPulled)
attr title "outgoing datarate"
attr unit bps
vector 205 SmartSubstationTopology.stationA_Camera5.eth[0].queue incomingDataRate:vector ETV
attr interpolationmode linear
attr recordingmode vector
attr source throughput(packetPushStarted)
attr title "incoming datarate"
attr unit bps
vector 206 SmartSubstationTopology.stationA_Camera5.app[0] throughput:vector ETV
attr recordingmode vector
attr source throughput(packetReceived)
attr title throughput
attr unit bps
vector 207 SmartSubstationTopology.stationA_Camera6.eth[0].queue outgoingDataRate:vector ETV
attr interpolationmode linear
attr recordingmode vector
attr source throughput(packetPulled)
attr title "outgoing datarate"
attr unit bps
vector 208 SmartSubstationTopology.stationA_Camera6.eth[0].queue incomingDataRate:vector ETV
attr interpolationmode linear
attr recordingmode vector
attr source throughput(packetPushStarted)
attr title "incoming datarate"
attr unit bps
vector 209 SmartSubstationTopology.stationA_Camera6.app[0] throughput:vector ETV
attr recordingmode vector
attr source throughput(packetReceived)
attr title throughput
attr unit bps
vector 210 SmartSubstationTopology.stationA_Camera7.eth[0].queue outgoingDataRate:vector ETV
attr interpolationmode linear
attr recordingmode vector
attr source throughput(packetPulled)
attr title "outgoing datarate"
attr unit bps
vector 211 SmartSubstationTopology.stationA_Camera7.eth[0].queue incomingDataRate:vector ETV
attr interpolationmode linear
attr recordingmode vector
attr source throughput(packetPushStarted)
attr title "incoming datarate"
attr unit bps
vector 212 SmartSubstationTopology.stationA_Camera7.app[0] throughput:vector ETV
attr recordingmode vector
attr source throughput(packetReceived)
attr title throughput
attr unit bps
vector 213 SmartSubstationTopology.stationA_Camera8.eth[0].queue outgoingDataRate:vector ETV
attr interpolationmode linear
attr recordingmode vector
attr source throughput(packetPulled)
attr title "outgoing datarate"
attr unit bps
vector 214 SmartSubstationTopology.stationA_Camera8.eth[0].queue incomingDataRate:vector ETV
attr interpolationmode linear
attr recordingmode vector
attr source throughput(packetPushStarted)
attr title "incoming datarate"
attr unit bps
vector 215 SmartSubstationTopology.stationA_Camera8.app[0] throughput:vector ETV
attr recordingmode vector
attr source throughput(packetReceived)
attr title throughput
attr unit bps
vector 216 SmartSubstationTopology.stationA_Camera9.eth[0].queue outgoingDataRate:vector ETV
attr interpolationmode linear
attr recordingmode vector
attr source throughput(packetPulled)
attr title "outgoing datarate"
attr unit bps
vector 217 SmartSubstationTopology.stationA_Camera9.eth[0].queue incomingDataRate:vector ETV
attr interpolationmode linear
attr recordingmode vector
attr source throughput(packetPushStarted)
attr title "incoming datarate"
attr unit bps
vector 218 SmartSubstationTopology.stationA_Camera9.app[0] throughput:vector ETV
attr recordingmode vector
attr source throughput(packetReceived)
attr title throughput
attr unit bps
vector 219 SmartSubstationTopology.stationA_Camera10.eth[0].queue outgoingDataRate:vector ETV
attr interpolationmode linear
attr recordingmode vector
attr source throughput(packetPulled)
attr title "outgoing datarate"
attr unit bps
vector 220 SmartSubstationTopology.stationA_Camera10.eth[0].queue incomingDataRate:vector ETV
attr interpolationmode linear
attr recordingmode vector
attr source throughput(packetPushStarted)
attr title "incoming datarate"
attr unit bps
vector 221 SmartSubstationTopology.stationA_Camera10.app[0] throughput:vector ETV
attr recordingmode vector
attr source throughput(packetReceived)
attr title throughput
attr unit bps
vector 222 SmartSubstationTopology.stationA_VoIP1.eth[0].queue outgoingDataRate:vector ETV
attr interpolationmode linear
attr recordingmode vector
attr source throughput(packetPulled)
attr title "outgoing datarate"
attr unit bps
vector 223 SmartSubstationTopology.stationA_VoIP1.eth[0].queue incomingDataRate:vector ETV
attr interpolationmode linear
attr recordingmode vector
attr source throughput(packetPushStarted)
attr title "incoming datarate"
attr unit bps
vector 224 SmartSubstationTopology.stationA_VoIP1.app[0] throughput:vector ETV
attr recordingmode vector
attr source throughput(packetReceived)
attr title throughput
attr unit bps
vector 225 SmartSubstationTopology.stationA_VoIP2.eth[0].queue outgoingDataRate:vector ETV
attr interpolationmode linear
attr recordingmode vector
attr source throughput(packetPulled)
attr title "outgoing datarate"
attr unit bps
vector 226 SmartSubstationTopology.stationA_VoIP2.eth[0].queue incomingDataRate:vector ETV
attr interpolationmode linear
attr recordingmode vector
attr source throughput(packetPushStarted)
attr title "incoming datarate"
attr unit bps
vector 227 SmartSubstationTopology.stationA_VoIP2.app[0] throughput:vector ETV
attr recordingmode vector
attr source throughput(packetReceived)
attr title throughput
attr unit bps
vector 228 SmartSubstationTopology.stationA_OMServer.eth[0].queue outgoingDataRate:vector ETV
attr interpolationmode linear
attr recordingmode vector
attr source throughput(packetPulled)
attr title "outgoing datarate"
attr unit bps
vector 229 SmartSubstationTopology.stationA_OMServer.eth[0].queue incomingDataRate:vector ETV
attr interpolationmode linear
attr recordingmode vector
attr source throughput(packetPushStarted)
attr title "incoming datarate"
attr unit bps
vector 230 SmartSubstationTopology.stationA_OMServer.app[0] throughput:vector ETV
attr recordingmode vector
attr source throughput(packetReceived)
attr title throughput
attr unit bps
vector 231 SmartSubstationTopology.stationB_TSN.ieee8021q.qTagHeaderChecker droppedDataRate:vector ETV
attr interpolationmode linear
attr recordingmode vector
attr source throughput(packetDropped)
attr title "dropped data rate"
attr unit bps
vector 232 SmartSubstationTopology.stationB_TSN.ieee8021r.rTagHeaderChecker droppedDataRate:vector ETV
attr interpolationmode linear
attr recordingmode vector
attr source throughput(packetDropped)
attr title "dropped data rate"
attr unit bps
vector 233 SmartSubstationTopology.stationB_TSN.eth[0].queue outgoingDataRate:vector ETV
attr interpolationmode linear
attr recordingmode vector
attr source throughput(packetPulled)
attr title "outgoing datarate"
attr unit bps
vector 234 SmartSubstationTopology.stationB_TSN.eth[0].queue incomingDataRate:vector ETV
attr interpolationmode linear
attr recordingmode vector
attr source throughput(packetPushStarted)
attr title "incoming datarate"
attr unit bps
vector 235 SmartSubstationTopology.stationB_TSN.eth[1].queue outgoingDataRate:vector ETV
attr interpolationmode linear
attr recordingmode vector
attr source throughput(packetPulled)
attr title "outgoing datarate"
attr unit bps
vector 236 SmartSubstationTopology.stationB_TSN.eth[1].queue incomingDataRate:vector ETV
attr interpolationmode linear
attr recordingmode vector
attr source throughput(packetPushStarted)
attr title "incoming datarate"
attr unit bps
vector 237 SmartSubstationTopology.stationB_TSN.eth[2].queue outgoingDataRate:vector ETV
attr interpolationmode linear
attr recordingmode vector
attr source throughput(packetPulled)
attr title "outgoing datarate"
attr unit bps
vector 238 SmartSubstationTopology.stationB_TSN.eth[2].queue incomingDataRate:vector ETV
attr interpolationmode linear
attr recordingmode vector
attr source throughput(packetPushStarted)
attr title "incoming datarate"
attr unit bps
vector 239 SmartSubstationTopology.stationB_TSN.eth[3].queue outgoingDataRate:vector ETV
attr interpolationmode linear
attr recordingmode vector
attr source throughput(packetPulled)
attr title "outgoing datarate"
attr unit bps
vector 240 SmartSubstationTopology.stationB_TSN.eth[3].queue incomingDataRate:vector ETV
attr interpolationmode linear
attr recordingmode vector
attr source throughput(packetPushStarted)
attr title "incoming datarate"
attr unit bps
vector 241 SmartSubstationTopology.stationB_TSN.eth[4].queue outgoingDataRate:vector ETV
attr interpolationmode linear
attr recordingmode vector
attr source throughput(packetPulled)
attr title "outgoing datarate"
attr unit bps
vector 242 SmartSubstationTopology.stationB_TSN.eth[4].queue incomingDataRate:vector ETV
attr interpolationmode linear
attr recordingmode vector
attr source throughput(packetPushStarted)
attr title "incoming datarate"
attr unit bps
vector 243 SmartSubstationTopology.stationB_TSN.eth[5].queue outgoingDataRate:vector ETV
attr interpolationmode linear
attr recordingmode vector
attr source throughput(packetPulled)
attr title "outgoing datarate"
attr unit bps
vector 244 SmartSubstationTopology.stationB_TSN.eth[5].queue incomingDataRate:vector ETV
attr interpolationmode linear
attr recordingmode vector
attr source throughput(packetPushStarted)
attr title "incoming datarate"
attr unit bps
vector 245 SmartSubstationTopology.stationB_TSN.eth[6].queue outgoingDataRate:vector ETV
attr interpolationmode linear
attr recordingmode vector
attr source throughput(packetPulled)
attr title "outgoing datarate"
attr unit bps
vector 246 SmartSubstationTopology.stationB_TSN.eth[6].queue incomingDataRate:vector ETV
attr interpolationmode linear
attr recordingmode vector
attr source throughput(packetPushStarted)
attr title "incoming datarate"
attr unit bps
vector 247 SmartSubstationTopology.stationB_TSN.eth[7].queue outgoingDataRate:vector ETV
attr interpolationmode linear
attr recordingmode vector
attr source throughput(packetPulled)
attr title "outgoing datarate"
attr unit bps
vector 248 SmartSubstationTopology.stationB_TSN.eth[7].queue incomingDataRate:vector ETV
attr interpolationmode linear
attr recordingmode vector
attr source throughput(packetPushStarted)
attr title "incoming datarate"
attr unit bps
vector 249 SmartSubstationTopology.stationB_TSN.eth[8].queue outgoingDataRate:vector ETV
attr interpolationmode linear
attr recordingmode vector
attr source throughput(packetPulled)
attr title "outgoing datarate"
attr unit bps
vector 250 SmartSubstationTopology.stationB_TSN.eth[8].queue incomingDataRate:vector ETV
attr interpolationmode linear
attr recordingmode vector
attr source throughput(packetPushStarted)
attr title "incoming datarate"
attr unit bps
vector 251 SmartSubstationTopology.stationB_TSN.eth[9].queue outgoingDataRate:vector ETV
attr interpolationmode linear
attr recordingmode vector
attr source throughput(packetPulled)
attr title "outgoing datarate"
attr unit bps
vector 252 SmartSubstationTopology.stationB_TSN.eth[9].queue incomingDataRate:vector ETV
attr interpolationmode linear
attr recordingmode vector
attr source throughput(packetPushStarted)
attr title "incoming datarate"
attr unit bps
vector 253 SmartSubstationTopology.stationB_TSN.eth[10].queue outgoingDataRate:vector ETV
attr interpolationmode linear
attr recordingmode vector
attr source throughput(packetPulled)
attr title "outgoing datarate"
attr unit bps
vector 254 SmartSubstationTopology.stationB_TSN.eth[10].queue incomingDataRate:vector ETV
attr interpolationmode linear
attr recordingmode vector
attr source throughput(packetPushStarted)
attr title "incoming datarate"
attr unit bps
vector 255 SmartSubstationTopology.stationB_TSN.eth[11].queue outgoingDataRate:vector ETV
attr interpolationmode linear
attr recordingmode vector
attr source throughput(packetPulled)
attr title "outgoing datarate"
attr unit bps
vector 256 SmartSubstationTopology.stationB_TSN.eth[11].queue incomingDataRate:vector ETV
attr interpolationmode linear
attr recordingmode vector
attr source throughput(packetPushStarted)
attr title "incoming datarate"
attr unit bps
vector 257 SmartSubstationTopology.stationB_TSN.eth[12].queue outgoingDataRate:vector ETV
attr interpolationmode linear
attr recordingmode vector
attr source throughput(packetPulled)
attr title "outgoing datarate"
attr unit bps
vector 258 SmartSubstationTopology.stationB_TSN.eth[12].queue incomingDataRate:vector ETV
attr interpolationmode linear
attr recordingmode vector
attr source throughput(packetPushStarted)
attr title "incoming datarate"
attr unit bps
vector 259 SmartSubstationTopology.stationB_TSN.eth[13].queue outgoingDataRate:vector ETV
attr interpolationmode linear
attr recordingmode vector
attr source throughput(packetPulled)
attr title "outgoing datarate"
attr unit bps
vector 260 SmartSubstationTopology.stationB_TSN.eth[13].queue incomingDataRate:vector ETV
attr interpolationmode linear
attr recordingmode vector
attr source throughput(packetPushStarted)
attr title "incoming datarate"
attr unit bps
vector 261 SmartSubstationTopology.stationB_TSN.eth[14].queue outgoingDataRate:vector ETV
attr interpolationmode linear
attr recordingmode vector
attr source throughput(packetPulled)
attr title "outgoing datarate"
attr unit bps
vector 262 SmartSubstationTopology.stationB_TSN.eth[14].queue incomingDataRate:vector ETV
attr interpolationmode linear
attr recordingmode vector
attr source throughput(packetPushStarted)
attr title "incoming datarate"
attr unit bps
vector 263 SmartSubstationTopology.stationB_TSN.eth[15].queue outgoingDataRate:vector ETV
attr interpolationmode linear
attr recordingmode vector
attr source throughput(packetPulled)
attr title "outgoing datarate"
attr unit bps
vector 264 SmartSubstationTopology.stationB_TSN.eth[15].queue incomingDataRate:vector ETV
attr interpolationmode linear
attr recordingmode vector
attr source throughput(packetPushStarted)
attr title "incoming datarate"
attr unit bps
vector 265 SmartSubstationTopology.stationB_TSN.eth[16].queue outgoingDataRate:vector ETV
attr interpolationmode linear
attr recordingmode vector
attr source throughput(packetPulled)
attr title "outgoing datarate"
attr unit bps
vector 266 SmartSubstationTopology.stationB_TSN.eth[16].queue incomingDataRate:vector ETV
attr interpolationmode linear
attr recordingmode vector
attr source throughput(packetPushStarted)
attr title "incoming datarate"
attr unit bps
[...]
attr recordingmode vector
attr source throughput(packetReceived)
attr title throughput
attr unit bps
vector 312 SmartSubstationTopology.stationB_Camera7.eth[0].queue outgoingDataRate:vector ETV
attr interpolationmode linear
attr recordingmode vector
attr source throughput(packetPulled)
attr title "outgoing datarate"
attr unit bps
vector 313 SmartSubstationTopology.stationB_Camera7.eth[0].queue incomingDataRate:vector ETV
attr interpolationmode linear
attr recordingmode vector
attr source throughput(packetPushStarted)
attr title "incoming datarate"
attr unit bps
vector 314 SmartSubstationTopology.stationB_Camera7.app[0] throughput:vector ETV
attr recordingmode vector
attr source throughput(packetReceived)
attr title throughput
attr unit bps
vector 315 SmartSubstationTopology.stationB_Camera8.eth[0].queue outgoingDataRate:vector ETV
attr interpolationmode linear
attr recordingmode vector
attr source throughput(packetPulled)
attr title "outgoing datarate"
attr unit bps
vector 316 SmartSubstationTopology.stationB_Camera8.eth[0].queue incomingDataRate:vector ETV
attr interpolationmode linear
attr recordingmode vector
attr source throughput(packetPushStarted)
attr title "incoming datarate"
attr unit bps
vector 317 SmartSubstationTopology.stationB_Camera8.app[0] throughput:vector ETV
attr recordingmode vector
attr source throughput(packetReceived)
attr title throughput
attr unit bps
vector 318 SmartSubstationTopology.stationB_Camera9.eth[0].queue outgoingDataRate:vector ETV
attr interpolationmode linear
attr recordingmode vector
attr source throughput(packetPulled)
attr title "outgoing datarate"
attr unit bps
vector 319 SmartSubstationTopology.stationB_Camera9.eth[0].queue incomingDataRate:vector ETV
attr interpolationmode linear
attr recordingmode vector
attr source throughput(packetPushStarted)
attr title "incoming datarate"
attr unit bps
vector 320 SmartSubstationTopology.stationB_Camera9.app[0] throughput:vector ETV
attr recordingmode vector
attr source throughput(packetReceived)
attr title throughput
attr unit bps
vector 321 SmartSubstationTopology.stationB_Camera10.eth[0].queue outgoingDataRate:vector ETV
attr interpolationmode linear
attr recordingmode vector
attr source throughput(packetPulled)
attr title "outgoing datarate"
attr unit bps
vector 322 SmartSubstationTopology.stationB_Camera10.eth[0].queue incomingDataRate:vector ETV
attr interpolationmode linear
attr recordingmode vector
attr source throughput(packetPushStarted)
attr title "incoming datarate"
attr unit bps
vector 323 SmartSubstationTopology.stationB_Camera10.app[0] throughput:vector ETV
attr recordingmode vector
attr source throughput(packetReceived)
attr title throughput
attr unit bps
vector 324 SmartSubstationTopology.stationB_VoIP1.eth[0].queue outgoingDataRate:vector ETV
attr interpolationmode linear
attr recordingmode vector
attr source throughput(packetPulled)
attr title "outgoing datarate"
attr unit bps
vector 325 SmartSubstationTopology.stationB_VoIP1.eth[0].queue incomingDataRate:vector ETV
attr interpolationmode linear
attr recordingmode vector
attr source throughput(packetPushStarted)
attr title "incoming datarate"
attr unit bps
vector 326 SmartSubstationTopology.stationB_VoIP1.app[0] throughput:vector ETV
attr recordingmode vector
attr source throughput(packetReceived)
attr title throughput
attr unit bps
vector 327 SmartSubstationTopology.stationB_VoIP2.eth[0].queue outgoingDataRate:vector ETV
attr interpolationmode linear
attr recordingmode vector
attr source throughput(packetPulled)
attr title "outgoing datarate"
attr unit bps
vector 328 SmartSubstationTopology.stationB_VoIP2.eth[0].queue incomingDataRate:vector ETV
attr interpolationmode linear
attr recordingmode vector
attr source throughput(packetPushStarted)
attr title "incoming datarate"
attr unit bps
vector 329 SmartSubstationTopology.stationB_VoIP2.app[0] throughput:vector ETV
attr recordingmode vector
attr source throughput(packetReceived)
attr title throughput
attr unit bps
vector 330 SmartSubstationTopology.stationB_OMServer.eth[0].queue outgoingDataRate:vector ETV
attr interpolationmode linear
attr recordingmode vector
attr source throughput(packetPulled)
attr title "outgoing datarate"
attr unit bps
vector 331 SmartSubstationTopology.stationB_OMServer.eth[0].queue incomingDataRate:vector ETV
attr interpolationmode linear
attr recordingmode vector
attr source throughput(packetPushStarted)
attr title "incoming datarate"
attr unit bps
vector 332 SmartSubstationTopology.stationB_OMServer.app[0] throughput:vector ETV
attr recordingmode vector
attr source throughput(packetReceived)
attr title throughput
attr unit bps
vector 333 SmartSubstationTopology.borderGateway1.eth[0].queue outgoingDataRate:vector ETV
attr interpolationmode linear
attr recordingmode vector
attr source throughput(packetPulled)
attr title "outgoing datarate"
attr unit bps
vector 334 SmartSubstationTopology.borderGateway1.eth[0].queue incomingDataRate:vector ETV
attr interpolationmode linear
attr recordingmode vector
attr source throughput(packetPushStarted)
attr title "incoming datarate"
attr unit bps
vector 335 SmartSubstationTopology.borderGateway1.eth[1].queue outgoingDataRate:vector ETV
attr interpolationmode linear
attr recordingmode vector
attr source throughput(packetPulled)
attr title "outgoing datarate"
attr unit bps
vector 336 SmartSubstationTopology.borderGateway1.eth[1].queue incomingDataRate:vector ETV
attr interpolationmode linear
attr recordingmode vector
attr source throughput(packetPushStarted)
attr title "incoming datarate"
attr unit bps
vector 337 SmartSubstationTopology.borderGateway2.eth[0].queue outgoingDataRate:vector ETV
attr interpolationmode linear
attr recordingmode vector
attr source throughput(packetPulled)
attr title "outgoing datarate"
attr unit bps
vector 338 SmartSubstationTopology.borderGateway2.eth[0].queue incomingDataRate:vector ETV
attr interpolationmode linear
attr recordingmode vector
attr source throughput(packetPushStarted)
attr title "incoming datarate"
attr unit bps
vector 339 SmartSubstationTopology.borderGateway2.eth[1].queue outgoingDataRate:vector ETV
attr interpolationmode linear
attr recordingmode vector
attr source throughput(packetPulled)
attr title "outgoing datarate"
attr unit bps
vector 340 SmartSubstationTopology.borderGateway2.eth[1].queue incomingDataRate:vector ETV
attr interpolationmode linear
attr recordingmode vector
attr source throughput(packetPushStarted)
attr title "incoming datarate"
attr unit bps
vector 341 SmartSubstationTopology.otnDevice.eth[0].queue outgoingDataRate:vector ETV
attr interpolationmode linear
attr recordingmode vector
attr source throughput(packetPulled)
attr title "outgoing datarate"
attr unit bps
vector 342 SmartSubstationTopology.otnDevice.eth[0].queue incomingDataRate:vector ETV
attr interpolationmode linear
attr recordingmode vector
attr source throughput(packetPushStarted)
attr title "incoming datarate"
attr unit bps
vector 343 SmartSubstationTopology.otnDevice.eth[1].queue outgoingDataRate:vector ETV
attr interpolationmode linear
attr recordingmode vector
attr source throughput(packetPulled)
attr title "outgoing datarate"
attr unit bps
vector 344 SmartSubstationTopology.otnDevice.eth[1].queue incomingDataRate:vector ETV
attr interpolationmode linear
attr recordingmode vector
attr source throughput(packetPushStarted)
attr title "incoming datarate"
attr unit bps
0	99436 9 0 0 0 0 1 0 0 0 0
1	99445 9 0 0 0 0 1 0 0 0 0
2	99454 9 0 0 0 0 1 0 0 0 0
3	99463 9 0 0 0 0 1 0 0 0 0
4	99472 9 0 0 0 0 1 0 0 0 0
5	99481 9 0 0 0 0 1 0 0 0 0
6	99490 9 0 0 0 0 1 0 0 0 0
7	99499 9 0 0 0 0 1 0 0 0 0
8	99508 9 0 0 0 0 1 0 0 0 0
9	99517 9 0 0 0 0 1 0 0 0 0
10	99526 10 0 0 0 0 1 0 0 0 0
11	99536 10 0 0 0 0 1 0 0 0 0
12	99546 10 0 0 0 0 1 0 0 0 0
13	99556 10 0 0 0 0 1 0 0 0 0
14	99566 10 0 0 0 0 1 0 0 0 0
15	99576 10 0 0 0 0 1 0 0 0 0
16	99586 10 0 0 0 0 1 0 0 0 0
17	99596 10 0 0 0 0 1 0 0 0 0
18	99606 10 0 0 0 0 1 0 0 0 0
19	99616 10 0 0 0 0 1 0 0 0 0
20	99626 10 0 0 0 0 1 0 0 0 0
21	99636 10 0 0 0 0 1 0 0 0 0
22	99646 10 0 0 0 0 1 0 0 0 0
23	99656 10 0 0 0 0 1 0 0 0 0
24	99666 10 0 0 0 0 1 0 0 0 0
25	99676 10 0 0 0 0 1 0 0 0 0
26	99686 10 0 0 0 0 1 0 0 0 0
27	99696 10 0 0 0 0 1 0 0 0 0
28	99706 10 0 0 0 0 1 0 0 0 0
29	99716 10 0 0 0 0 1 0 0 0 0
30	99726 10 0 0 0 0 1 0 0 0 0
31	99736 10 0 0 0 0 1 0 0 0 0
32	99746 10 0 0 0 0 1 0 0 0 0
33	99756 10 0 0 0 0 1 0 0 0 0
34	99766 10 0 0 0 0 1 0 0 0 0
35	99776 10 0 0 0 0 1 0 0 0 0
36	99786 10 0 0 0 0 1 0 0 0 0
37	99796 10 0 0 0 0 1 0 0 0 0
38	99806 10 0 0 0 0 1 0 0 0 0
39	99816 10 0 0 0 0 1 0 0 0 0
40	99826 10 0 0 0 0 1 0 0 0 0
41	99836 10 0 0 0 0 1 0 0 0 0
42	99846 10 0 0 0 0 1 0 0 0 0
43	99856 10 0 0 0 0 1 0 0 0 0
44	99866 10 0 0 0 0 1 0 0 0 0
45	99876 10 0 0 0 0 1 0 0 0 0
46	99886 10 0 0 0 0 1 0 0 0 0
47	99896 10 0 0 0 0 1 0 0 0 0
48	99906 10 0 0 0 0 1 0 0 0 0
49	99916 10 0 0 0 0 1 0 0 0 0
50	99926 10 0 0 0 0 1 0 0 0 0
51	99936 10 0 0 0 0 1 0 0 0 0
52	99946 10 0 0 0 0 1 0 0 0 0
53	99956 10 0 0 0 0 1 0 0 0 0
54	99966 10 0 0 0 0 1 0 0 0 0
55	99976 10 0 0 0 0 1 0 0 0 0
56	99986 10 0 0 0 0 1 0 0 0 0
57	99996 10 0 0 0 0 1 0 0 0 0
58	100006 10 0 0 0 0 1 0 0 0 0
59	100016 10 0 0 0 0 1 0 0 0 0
60	100026 10 0 0 0 0 1 0 0 0 0
61	100036 10 0 0 0 0 1 0 0 0 0
62	100046 10 0 0 0 0 1 0 0 0 0
63	100056 10 0 0 0 0 1 0 0 0 0
64	100066 10 0 0 0 0 1 0 0 0 0
65	100076 10 0 0 0 0 1 0 0 0 0
66	100086 10 0 0 0 0 1 0 0 0 0
67	100096 10 0 0 0 0 1 0 0 0 0
68	100106 10 0 0 0 0 1 0 0 0 0
69	100116 10 0 0 0 0 1 0 0 0 0
70	100126 10 0 0 0 0 1 0 0 0 0
71	100136 10 0 0 0 0 1 0 0 0 0
72	100146 10 0 0 0 0 1 0 0 0 0
73	100156 10 0 0 0 0 1 0 0 0 0
74	100166 10 0 0 0 0 1 0 0 0 0
75	100176 10 0 0 0 0 1 0 0 0 0
76	100186 10 0 0 0 0 1 0 0 0 0
77	100196 10 0 0 0 0 1 0 0 0 0
78	100206 10 0 0 0 0 1 0 0 0 0
79	100216 10 0 0 0 0 1 0 0 0 0
80	100226 10 0 0 0 0 1 0 0 0 0
81	100236 10 0 0 0 0 1 0 0 0 0
82	100246 10 0 0 0 0 1 0 0 0 0
83	100256 10 0 0 0 0 1 0 0 0 0
84	100266 10 0 0 0 0 1 0 0 0 0
85	100276 10 0 0 0 0 1 0 0 0 0
86	100286 10 0 0 0 0 1 0 0 0 0
87	100296 10 0 0 0 0 1 0 0 0 0
88	100306 10 0 0 0 0 1 0 0 0 0
89	100316 10 0 0 0 0 1 0 0 0 0
90	100326 10 0 0 0 0 1 0 0 0 0
91	100336 10 0 0 0 0 1 0 0 0 0
92	100346 10 0 0 0 0 1 0 0 0 0
93	100356 10 0 0 0 0 1 0 0 0 0
94	100366 10 0 0 0 0 1 0 0 0 0
95	100376 10 0 0 0 0 1 0 0 0 0
96	100386 10 0 0 0 0 1 0 0 0 0
97	100396 10 0 0 0 0 1 0 0 0 0
98	100406 10 0 0 0 0 1 0 0 0 0
99	100416 10 0 0 0 0 1 0 0 0 0
100	100426 11 0 0 0 0 1 0 0 0 0
101	100437 11 0 0 0 0 1 0 0 0 0
102	100448 11 0 0 0 0 1 0 0 0 0
103	100459 11 0 0 0 0 1 0 0 0 0
104	100470 11 0 0 0 0 1 0 0 0 0
105	100481 11 0 0 0 0 1 0 0 0 0
106	100492 11 0 0 0 0 1 0 0 0 0
107	100503 11 0 0 0 0 1 0 0 0 0
108	100514 11 0 0 0 0 1 0 0 0 0
109	100525 11 0 0 0 0 1 0 0 0 0
110	100536 11 0 0 0 0 1 0 0 0 0
111	100547 11 0 0 0 0 1 0 0 0 0
112	100558 11 0 0 0 0 1 0 0 0 0
113	100569 11 0 0 0 0 1 0 0 0 0
114	100580 11 0 0 0 0 1 0 0 0 0
115	100591 11 0 0 0 0 1 0 0 0 0
116	100602 11 0 0 0 0 1 0 0 0 0
117	100613 11 0 0 0 0 1 0 0 0 0
118	100624 11 0 0 0 0 1 0 0 0 0
119	100635 11 0 0 0 0 1 0 0 0 0
120	100646 11 0 0 0 0 1 0 0 0 0
121	100657 11 0 0 0 0 1 0 0 0 0
122	100668 11 0 0 0 0 1 0 0 0 0
123	100679 11 0 0 0 0 1 0 0 0 0
124	100690 11 0 0 0 0 1 0 0 0 0
125	100701 11 0 0 0 0 1 0 0 0 0
126	100712 11 0 0 0 0 1 0 0 0 0
127	100723 11 0 0 0 0 1 0 0 0 0
128	100734 11 0 0 0 0 1 0 0 0 0
129	100745 444 108 108 0.1 3 30 0 0 0 0
130	101189 444 108 108 0.1 3 30 0 0 0 0
131	101633 444 108 108 0.1 3 30 0 0 0 0
132	102077 444 108 108 0.1 3 30 0 0 0 0
133	102521 444 108 108 0.1 3 30 0 0 0 0
134	102965 444 108 108 0.1 3 30 0 0 0 0
135	103409 444 108 108 0.1 3 30 0 0 0 0
136	103853 444 108 108 0.1 3 30 0 0 0 0
137	104297 444 108 108 0.1 3 30 0 0 0 0
138	104741 444 108 108 0.1 3 30 0 0 0 0
139	105185 444 108 108 0.1 3 30 0 0 0 0
140	105629 444 108 108 0.1 3 30 0 0 0 0
141	106073 444 108 108 0.1 3 30 0 0 0 0
142	106517 444 108 108 0.1 3 30 0 0 0 0
143	106961 444 108 108 0.1 3 30 0 0 0 0
144	107405 444 108 108 0.1 3 30 0 0 0 0
145	107849 444 108 108 0.1 3 30 0 0 0 0
146	108293 444 108 108 0.1 3 30 0 0 0 0
147	108737 444 108 108 0.1 3 30 0 0 0 0
148	109181 444 108 108 0.1 3 30 0 0 0 0
149	109625 444 108 108 0.1 3 30 0 0 0 0
150	110069 444 108 108 0.1 3 30 0 0 0 0
151	110513 444 108 108 0.1 3 30 0 0 0 0
152	110957 444 108 108 0.1 3 30 0 0 0 0
153	111401 444 108 108 0.1 3 30 0 0 0 0
154	111845 444 108 108 0.1 3 30 0 0 0 0
155	112289 444 108 108 0.1 3 30 0 0 0 0
156	112733 444 108 108 0.1 3 30 0 0 0 0
157	113177 444 108 108 0.1 3 30 0 0 0 0
158	113621 444 108 108 0.1 3 30 0 0 0 0
159	114065 444 108 108 0.1 3 30 0 0 0 0
160	114509 444 108 108 0.1 3 30 0 0 0 0
161	114953 444 108 108 0.1 3 30 0 0 0 0
162	115397 444 108 108 0.1 3 30 0 0 0 0
163	115841 444 108 108 0.1 3 30 0 0 0 0
164	116285 444 108 108 0.1 3 30 0 0 0 0
165	116729 444 108 108 0.1 3 30 0 0 0 0
166	117173 444 108 108 0.1 3 30 0 0 0 0
167	117617 444 108 108 0.1 3 30 0 0 0 0
168	118061 444 108 108 0.1 3 30 0 0 0 0
169	118505 444 108 108 0.1 3 30 0 0 0 0
170	118949 444 108 108 0.1 3 30 0 0 0 0
171	119393 444 108 108 0.1 3 30 0 0 0 0
172	119837 444 108 108 0.1 3 30 0 0 0 0
173	120281 444 108 108 0.1 3 30 0 0 0 0
174	120725 444 108 108 0.1 3 30 0 0 0 0
175	121169 444 108 108 0.1 3 30 0 0 0 0
176	121613 444 108 108 0.1 3 30 0 0 0 0
177	122057 444 108 108 0.1 3 30 0 0 0 0
178	122501 444 108 108 0.1 3 30 0 0 0 0
179	122945 444 108 108 0.1 3 30 0 0 0 0
180	123389 444 108 108 0.1 3 30 0 0 0 0
181	123833 444 108 108 0.1 3 30 0 0 0 0
182	124277 444 108 108 0.1 3 30 0 0 0 0
183	124721 444 108 108 0.1 3 30 0 0 0 0
184	125165 444 108 108 0.1 3 30 0 0 0 0
185	125609 444 108 108 0.1 3 30 0 0 0 0
186	126053 444 108 108 0.1 3 30 0 0 0 0
187	126497 444 108 108 0.1 3 30 0 0 0 0
188	126941 444 108 108 0.1 3 30 0 0 0 0
189	127385 444 108 108 0.1 3 30 0 0 0 0
190	127829 444 108 108 0.1 3 30 0 0 0 0
191	128273 444 108 108 0.1 3 30 0 0 0 0
192	128717 444 108 108 0.1 3 30 0 0 0 0
193	129161 444 108 108 0.1 3 30 0 0 0 0
194	129605 444 108 108 0.1 3 30 0 0 0 0
195	130049 444 108 108 0.1 3 30 0 0 0 0
196	130493 444 108 108 0.1 3 30 0 0 0 0
197	130937 444 108 108 0.1 3 30 0 0 0 0
198	131381 444 108 108 0.1 3 30 0 0 0 0
199	131825 444 108 108 0.1 3 30 0 0 0 0
200	132269 444 108 108 0.1 3 30 0 0 0 0
201	132713 444 108 108 0.1 3 30 0 0 0 0
202	133157 444 108 108 0.1 3 30 0 0 0 0
203	133601 444 108 108 0.1 3 30 0 0 0 0
204	134045 444 108 108 0.1 3 30 0 0 0 0
205	134489 444 108 108 0.1 3 30 0 0 0 0
206	134933 444 108 108 0.1 3 30 0 0 0 0
207	135377 444 108 108 0.1 3 30 0 0 0 0
208	135821 444 108 108 0.1 3 30 0 0 0 0
209	136265 444 108 108 0.1 3 30 0 0 0 0
210	136709 444 108 108 0.1 3 30 0 0 0 0
211	137153 444 108 108 0.1 3 30 0 0 0 0
212	137597 444 108 108 0.1 3 30 0 0 0 0
213	138041 444 108 108 0.1 3 30 0 0 0 0
214	138485 444 108 108 0.1 3 30 0 0 0 0
215	138929 444 108 108 0.1 3 30 0 0 0 0
216	139373 444 108 108 0.1 3 30 0 0 0 0
217	139817 444 108 108 0.1 3 30 0 0 0 0
218	140261 444 108 108 0.1 3 30 0 0 0 0
219	140705 444 108 108 0.1 3 30 0 0 0 0
220	141149 444 108 108 0.1 3 30 0 0 0 0
221	141593 444 108 108 0.1 3 30 0 0 0 0
222	142037 444 108 108 0.1 3 30 0 0 0 0
223	142481 444 108 108 0.1 3 30 0 0 0 0
224	142925 444 108 108 0.1 3 30 0 0 0 0
225	143369 444 108 108 0.1 3 30 0 0 0 0
226	143813 444 108 108 0.1 3 30 0 0 0 0
227	144257 444 108 108 0.1 3 30 0 0 0 0
228	144701 444 108 108 0.1 3 30 0 0 0 0
229	145145 444 108 108 0.1 3 30 0 0 0 0
230	145589 444 108 108 0.1 3 30 0 0 0 0
231	146033 444 108 108 0.1 3 30 0 0 0 0
232	146477 444 108 108 0.1 3 30 0 0 0 0
233	146921 444 108 108 0.1 3 30 0 0 0 0
234	147365 444 108 108 0.1 3 30 0 0 0 0
235	147809 444 108 108 0.1 3 30 0 0 0 0
236	148253 444 108 108 0.1 3 30 0 0 0 0
237	148697 444 108 108 0.1 3 30 0 0 0 0
238	149141 444 108 108 0.1 3 30 0 0 0 0
239	149585 444 108 108 0.1 3 30 0 0 0 0
240	150029 444 108 108 0.1 3 30 0 0 0 0
241	150473 444 108 108 0.1 3 30 0 0 0 0
242	150917 444 108 108 0.1 3 30 0 0 0 0
243	151361 444 108 108 0.1 3 30 0 0 0 0
244	151805 444 108 108 0.1 3 30 0 0 0 0
245	152249 444 108 108 0.1 3 30 0 0 0 0
246	152693 444 108 108 0.1 3 30 0 0 0 0
247	153137 444 108 108 0.1 3 30 0 0 0 0
248	153581 444 108 108 0.1 3 30 0 0 0 0
249	154025 444 108 108 0.1 3 30 0 0 0 0
250	154469 444 108 108 0.1 3 30 0 0 0 0
251	154913 444 108 108 0.1 3 30 0 0 0 0
252	155357 444 108 108 0.1 3 30 0 0 0 0
253	155801 444 108 108 0.1 3 30 0 0 0 0
254	156245 444 108 108 0.1 3 30 0 0 0 0
255	156689 444 108 108 0.1 3 30 0 0 0 0
256	157133 444 108 108 0.1 3 30 0 0 0 0
257	157577 444 108 108 0.1 3 30 0 0 0 0
258	158021 444 108 108 0.1 3 30 0 0 0 0
259	158465 444 108 108 0.1 3 30 0 0 0 0
260	158909 444 108 108 0.1 3 30 0 0 0 0
261	159353 444 108 108 0.1 3 30 0 0 0 0
262	159797 444 108 108 0.1 3 30 0 0 0 0
263	160241 444 108 108 0.1 3 30 0 0 0 0
264	160685 444 108 108 0.1 3 30 0 0 0 0
265	161129 444 108 108 0.1 3 30 0 0 0 0
266	161573 444 108 108 0.1 3 30 0 0 0 0
267	162017 444 108 108 0.1 3 30 0 0 0 0
268	162461 444 108 108 0.1 3 30 0 0 0 0
269	162905 444 108 108 0.1 3 30 0 0 0 0
270	163349 444 108 108 0.1 3 30 0 0 0 0
271	163793 444 108 108 0.1 3 30 0 0 0 0
272	164237 444 108 108 0.1 3 30 0 0 0 0
273	164681 444 108 108 0.1 3 30 0 0 0 0
274	165125 444 108 108 0.1 3 30 0 0 0 0
275	165569 444 108 108 0.1 3 30 0 0 0 0
276	166013 444 108 108 0.1 3 30 0 0 0 0
277	166457 444 108 108 0.1 3 30 0 0 0 0
278	166901 444 108 108 0.1 3 30 0 0 0 0
279	167345 444 108 108 0.1 3 30 0 0 0 0
280	167789 444 108 108 0.1 3 30 0 0 0 0
281	168233 444 108 108 0.1 3 30 0 0 0 0
282	168677 444 108 108 0.1 3 30 0 0 0 0
283	169121 444 108 108 0.1 3 30 0 0 0 0
284	169565 444 108 108 0.1 3 30 0 0 0 0
285	170009 444 108 108 0.1 3 30 0 0 0 0
286	170453 444 108 108 0.1 3 30 0 0 0 0
287	170897 444 108 108 0.1 3 30 0 0 0 0
288	171341 444 108 108 0.1 3 30 0 0 0 0
289	171785 444 108 108 0.1 3 30 0 0 0 0
290	172229 444 108 108 0.1 3 30 0 0 0 0
291	172673 444 108 108 0.1 3 30 0 0 0 0
292	173117 444 108 108 0.1 3 30 0 0 0 0
293	173561 444 108 108 0.1 3 30 0 0 0 0
294	174005 444 108 108 0.1 3 30 0 0 0 0
295	174449 444 108 108 0.1 3 30 0 0 0 0
296	174893 444 108 108 0.1 3 30 0 0 0 0
297	175337 444 108 108 0.1 3 30 0 0 0 0
298	175781 444 108 108 0.1 3 30 0 0 0 0
299	176225 444 108 108 0.1 3 30 0 0 0 0
300	176669 444 108 108 0.1 3 30 0 0 0 0
301	177113 444 108 108 0.1 3 30 0 0 0 0
302	177557 444 108 108 0.1 3 30 0 0 0 0
303	178001 444 108 108 0.1 3 30 0 0 0 0
304	178445 444 108 108 0.1 3 30 0 0 0 0
305	178889 444 108 108 0.1 3 30 0 0 0 0
306	179333 444 108 108 0.1 3 30 0 0 0 0
307	179777 444 108 108 0.1 3 30 0 0 0 0
308	180221 444 108 108 0.1 3 30 0 0 0 0
309	180665 444 108 108 0.1 3 30 0 0 0 0
310	181109 444 108 108 0.1 3 30 0 0 0 0
311	181553 444 108 108 0.1 3 30 0 0 0 0
312	181997 444 108 108 0.1 3 30 0 0 0 0
313	182441 444 108 108 0.1 3 30 0 0 0 0
314	182885 444 108 108 0.1 3 30 0 0 0 0
315	183329 444 108 108 0.1 3 30 0 0 0 0
316	183773 444 108 108 0.1 3 30 0 0 0 0
317	184217 444 108 108 0.1 3 30 0 0 0 0
318	184661 444 108 108 0.1 3 30 0 0 0 0
319	185105 444 108 108 0.1 3 30 0 0 0 0
320	185549 444 108 108 0.1 3 30 0 0 0 0
321	185993 444 108 108 0.1 3 30 0 0 0 0
322	186437 444 108 108 0.1 3 30 0 0 0 0
323	186881 444 108 108 0.1 3 30 0 0 0 0
324	187325 444 108 108 0.1 3 30 0 0 0 0
325	187769 444 108 108 0.1 3 30 0 0 0 0
326	188213 444 108 108 0.1 3 30 0 0 0 0
327	188657 444 108 108 0.1 3 30 0 0 0 0
328	189101 444 108 108 0.1 3 30 0 0 0 0
329	189545 444 108 108 0.1 3 30 0 0 0 0
330	189989 444 108 108 0.1 3 30 0 0 0 0
331	190433 444 108 108 0.1 3 30 0 0 0 0
332	190877 444 108 108 0.1 3 30 0 0 0 0
333	191321 444 108 108 0.1 3 30 0 0 0 0
334	191765 444 108 108 0.1 3 30 0 0 0 0
335	192209 444 108 108 0.1 3 30 0 0 0 0
336	192653 444 108 108 0.1 3 30 0 0 0 0
337	193097 444 108 108 0.1 3 30 0 0 0 0
338	193541 444 108 108 0.1 3 30 0 0 0 0
339	193985 444 108 108 0.1 3 30 0 0 0 0
340	194429 444 108 108 0.1 3 30 0 0 0 0
341	194873 444 108 108 0.1 3 30 0 0 0 0
342	195317 444 108 108 0.1 3 30 0 0 0 0
343	195761 444 108 108 0.1 3 30 0 0 0 0
344	196205 444 108 108 0.1 3 30 0 0 0 0

